/*--------------------------------*- C++ -*----------------------------------*\
| =========                 |                                                 |
| \\      /  F ield         | OpenFOAM: The Open Source CFD Toolbox           |
|  \\    /   O peration     | Version:  2406                                  |
|   \\  /    A nd           | Website:  www.openfoam.com                      |
|    \\/     M anipulation  |                                                 |
\*---------------------------------------------------------------------------*/
FoamFile
{
    version     2.0;
    format      ascii;
    arch        "LSB;label=32;scalar=64";
    class       Cloud<dsmcParcel>;
    location    "0/lagrangian/dsmc";
    object      coordinates;
}
// * * * * * * * * * * * * * * * * * * * * * * * * * * * * * * * * * * * * * //

5100
(
(0.39436732424857 0.198493166559714 0.387898110000892 0.0192413991908237) 0 0 1
(0.440431817445819 0.0822266747237423 0.0212827471391712 0.456058760691268) 0 0 2
(0.220491184124612 0.390337637533179 0.144509079194524 0.244662099147685) 0 1 1
(0.486287018714714 0.269530702725881 0.0569680150776763 0.187214263481728) 0 1 2
(0.662631578593571 0.18445095377966 0.120650194384405 0.0322672732423643) 0 1043 1
(0.193989754332095 0.00340011246528981 0.773764871703952 0.0288452614986633) 0 1043 2
(0.629489241730957 0.219021684743781 0.0186342254413238 0.132854848083938) 0 1091 2
(0.066704399165195 0.404574145758999 0.450093919159409 0.0786275359163966) 0 1637 1
(0.370050145459758 0.0644545781584416 0.455472445279172 0.110022831102629) 0 1637 2
(0.722373986983794 0.00162392233394034 0.090109587037015 0.185892503645251) 0 1637 2
(0.229865338768955 0.424799223888038 0.0642636064964948 0.281071830846512) 0 2183 2
(0.0390130840261664 0.550818011983104 0.0876272440631297 0.3225416599276) 1 2 1
(0.26481666186799 0.231509207025952 0.10779911061686 0.395875020489198) 1 2 2
(0.217094464453928 0.277029378815665 0.312935788156684 0.192940368573723) 1 3 1
(0.268064683456954 0.263000073808357 0.207226471132198 0.261708771602492) 1 1109 1
(0.614111810501798 0.188263034602825 0.01963036395207 0.177994790943307) 1 1109 2
(0.202183326320109 0.207359515353481 0.0579852258451227 0.532471932481287) 1 1655 1
(0.641496580574788 0.13824869923091 0.0662487164435418 0.154006003750761) 1 1655 2
(0.0748122947073084 0.332837693501717 0.195799124491727 0.396550887299248) 1 2184 1
(0.113980344170376 0.29182509476631 0.236181820839836 0.358012740223478) 1 2184 2
(0.0325813086863668 0.292288267789184 0.340604517364092 0.334525906160357) 1 0 1
(0.0278193778989326 0.0804591100807904 0.074156866283075 0.817564645737202) 1 0 2
(0.055944887193522 0.0514309622285838 0.186928141290363 0.705696009287532) 2 4 2
(0.140128041320259 0.172077146934468 0.189370438123796 0.498424373621478) 2 5 1
(0.302427720440324 0.437565941108772 0.193738436197984 0.0662679022529199) 2 5 2
(0.346672534490881 0.0195249517460155 0.42235811836942 0.211444395393683) 2 1673 1
(0.597868417121525 0.0840333820253894 0.0929033001978639 0.225194900655222) 2 1673 2
(0.375207307788613 0.0184567364051154 0.156207290621766 0.450128665184505) 2 2185 1
(0.13207569225253 0.336338682046058 0.254826672951673 0.276758952749739) 2 2185 1
(0.644446428853464 0.0561960289960122 0.0521865237488649 0.247171018401658) 2 2185 2
(0.265641708895756 0.1245080948436 0.0905664934461195 0.519283702814524) 2 2 1
(0.781207529006204 0.0176695685170646 0.117195879501596 0.0839270229751359) 2 2 2
(0.278150512207516 0.278317044113963 0.133782965134093 0.309749478544428) 3 6 1
(0.695261898237677 0.110957244303204 0.0205029616272621 0.173277895831857) 3 6 2
(0.00851795205444694 0.766224975977531 0.00880652347151785 0.216450548496504) 3 7 1
(0.293802275857567 0.198981393966648 0.46429642218182 0.0429199079939645) 3 7 1
(0.357483478832416 0.00260348800948127 0.616977197125562 0.0229358360325404) 3 7 2
(0.0240001672310062 0.836500029350762 0.0463873728311778 0.0931124305870542) 3 1145 1
(0.49291238176002 0.399859240703783 0.000517350753622449 0.106711026782575) 3 1145 2
(0.434608121169962 0.319168338398706 0.0852711758299683 0.160952364601364) 3 1691 1
(0.0835112688135926 0.213945906263158 0.408728353250134 0.293814471673115) 3 2186 1
(0.0531470457739122 0.349300496357006 0.0102882385979098 0.587264219271172) 3 2186 2
(0.433011375724927 0.237479747972704 0.263173339154379 0.0663355371479897) 3 2186 2
(0.521825771718565 0.0570746536976637 0.0529911655533233 0.368108409030448) 3 4 1
(0.478305066302471 0.0343814205331269 0.183704315427126 0.303609197737276) 3 4 1
(0.000476478025189242 0.389744499708055 0.304600043230171 0.305178979036585) 3 4 2
(0.634853201524979 0.0463534218061426 0.182443879393144 0.136349497275734) 4 9 1
(0.0871856277736264 0.1162233689591 0.216326470034704 0.58026453323257) 4 9 2
(0.678455284465963 0.263060500517892 0.0437108182231729 0.0147733967929718) 4 1163 1
(0.660864653313838 0.00779000076859975 0.16765867996166 0.163686665955902) 4 1163 2
(0.599545507277095 0.271515610785044 0.123172323997691 0.00576655794016989) 4 1709 2
(0.0802262704208907 0.229400158501479 0.0124174522070399 0.67795611887059) 4 1709 2
(0.272346894115894 0.486249596720463 0.0168209721536209 0.224582537010023) 4 6 1
(0.755072547775613 0.0780106594167133 0.0860310693091619 0.080885723498512) 4 6 2
(0.0268175766741847 0.0836216892804067 0.00847362660293076 0.881087107442478) 5 10 1
(0.0517224550426449 0.0264721785734802 0.362037431332737 0.559767935051138) 5 10 2
(0.196880549339579 0.328166400164822 0.0842728400062615 0.390680210489338) 5 11 1
(0.436535011469337 0.187057136371634 0.217526508628714 0.158881343530314) 5 11 2
(0.0743718642794747 0.4569194364338 0.422265615648538 0.046443083638187) 5 1181 2
(0.10091151687037 0.0125402685866503 0.43730123227044 0.44924698227254) 5 1727 1
(0.524166076744365 0.229736799536781 0.00665546960095729 0.239441654117896) 5 1727 2
(0.225378357456096 0.155202097983882 0.0689907388272439 0.550428805732778) 5 2188 1
(0.549147053838595 0.107561190741681 0.0328185233056853 0.310473232114038) 5 2188 2
(0.400846979323539 0.0238121784409636 0.561073844529337 0.0142669977061605) 5 8 1
(0.123783217703745 0.0714873889795695 0.681935420369323 0.122793972947363) 5 8 2
(0.145277407380227 0.616225260956778 0.121554757748292 0.116942573914703) 5 8 2
(0.540011889131704 0.0642544619289552 0.0941755709932394 0.301558077946101) 6 13 2
(0.201722931213052 0.192231705515374 0.0129176549815175 0.593127708290056) 6 1199 2
(0.0373389920765065 0.457287335983047 0.288879356491252 0.216494315449194) 6 1745 2
(0.113234158430433 0.400294828669819 0.437581883964505 0.0488891289352432) 6 1745 2
(0.270493411291658 0.567431774379663 0.12167806678685 0.0403967475418296) 6 2189 1
(0.132165118714125 0.570303535733094 0.131072446244292 0.16645889930849) 6 2189 2
(0.116009119313776 0.403811373462538 0.298845098434405 0.181334408789281) 6 10 2
(0.30745514736695 0.53578354234992 0.0563632558493721 0.100398054433758) 7 14 1
(0.384232082941462 0.513975869963086 0.0262698477108738 0.0755221993845779) 7 14 2
(0.266735062889414 0.40728560887829 0.325666627667939 0.000312700564356599) 7 15 1
(0.271115973022914 0.105715999172987 0.2364344594206 0.386733568383499) 7 1217 2
(0.373306712307622 0.0773909233350896 0.243156431327845 0.306145933029444) 7 1763 2
(0.393675314278126 0.0512445501276662 0.111658505815763 0.443421629778445) 7 12 2
(0.388060899372868 0.336574580816303 0.223320290036303 0.0520442297745266) 8 16 1
(0.0659636055495315 0.151857346146565 0.334779514096684 0.447399534207219) 8 16 1
(0.111763572569257 0.649907662612691 0.224147338587828 0.0141814262302247) 8 17 2
(0.214660897528003 0.0944684535867079 0.659202398878239 0.0316682500070497) 8 17 2
(0.293393103952345 0.28662998152868 0.404948023667398 0.0150288908515769) 8 1235 1
(0.223744596721928 0.324969379385931 0.345249285312164 0.106036738579978) 8 1781 1
(0.0879580585515134 0.37678516853063 0.189147350184486 0.346109422733371) 8 1781 2
(0.404288536308927 0.0438142421314957 0.356866052324209 0.195031169235369) 8 2191 1
(0.298766479887755 0.327465882302601 0.353957932556917 0.0198097052527277) 8 14 1
(0.0567381338045874 0.189064345686274 0.11914839875144 0.635049121757699) 8 14 1
(0.281626393598032 0.497043176204286 0.0344702710314515 0.18686015916623) 8 14 2
(0.217660501999518 0.0197878145552682 0.230745817428361 0.531805866016854) 9 18 1
(0.166903450483738 0.296083319717794 0.195377020954997 0.341636208843471) 9 18 2
(0.0671305267164968 0.434352906041503 0.0410445110248567 0.457472056217144) 9 19 1
(0.112845784791397 0.184516891785913 0.237591447625822 0.465045875796869) 9 19 1
(0.120969395690218 0.183352882055796 0.693921375183079 0.00175634707090814) 9 19 2
(0.0365518137249468 0.201032658873776 0.37509056004162 0.387324967359658) 9 1253 2
(0.350496365914483 0.0359245789076762 0.0176627985664134 0.595916256611428) 9 2192 2
(0.500842882875917 0.172172391997944 0.130779832528403 0.196204892597736) 9 16 1
(0.0817203444683957 0.635648129399246 0.249747110651171 0.0328844154811876) 10 20 1
(0.174210113492468 0.0370830742744316 0.603058497697918 0.185648314535182) 10 20 2
(0.0692501374775673 0.399538329814304 0.11820664947725 0.413004883230879) 10 20 2
(0.224392889027586 0.100064910505398 0.144846849823344 0.530695350643672) 10 21 1
(0.502061635512623 0.14997251602111 0.304566314162421 0.0433995343038459) 10 1271 2
(0.797395291065611 0.0209058645540087 0.17131649969318 0.0103823446872004) 10 1271 2
(0.766275617667491 0.00295691775998716 0.0664659252632973 0.164301539309224) 10 1817 1
(0.300215316174939 0.0981598037104796 0.143683205506356 0.457941674608225) 10 1817 2
(0.0722356751720215 0.214704176644973 0.665354496851135 0.0477056513318703) 10 2193 2
(0.533301910011898 0.0363042078735394 0.0235956062783001 0.406798275836262) 11 22 1
(0.402613703278742 0.00885114902490457 0.03335515220817 0.555179995488183) 11 23 1
(0.24536945808465 0.443670072898357 0.246637941670888 0.0643225273461044) 11 23 2
(0.455820705139179 0.133899175154137 0.352962996484061 0.0573171232226234) 11 1289 1
(0.209533496730158 0.2728446729514 0.199456744408947 0.318165085909494) 11 1289 2
(0.11566540838916 0.265305837902158 0.593731867501021 0.0252968862076611) 11 1289 2
(0.365196713856183 0.066573374508723 0.395148472105785 0.173081439529308) 11 1835 2
(0.186693134419296 0.281394247255741 0.297456067110085 0.234456551214878) 11 2194 1
(0.567423215046751 0.00389679894603212 0.356241252445651 0.0724387335615657) 11 2194 2
(0.374211559334275 0.542987396671835 0.0189900566734922 0.0638109873203974) 11 20 1
(0.444107287734677 0.3423479246806 0.191062039235104 0.0224827483496196) 11 20 1
(0.352845027338021 0.368072792918241 0.243729603098881 0.0353525766448567) 12 24 1
(0.0364774500171004 0.404762575069765 0.365104966123106 0.193655008790029) 12 24 2
(0.0294364737643731 0.247727086207015 0.392970479687833 0.329865960340779) 12 25 2
(0.244560350988357 0.226134114786459 0.319850444576115 0.209455089649069) 12 1307 2
(0.117435641321981 0.135486474159991 0.456090981467372 0.290986903050656) 12 1853 1
(0.302030815073073 0.483611048052246 0.0171308280905516 0.197227308784129) 12 1853 2
(0.486947405310895 0.268534812550859 0.0512554392676083 0.193262342870637) 12 1853 2
(0.183914829234946 0.598099605108617 0.164318805889276 0.0536667597671607) 12 2195 1
(0.548858054088094 0.307926937199723 0.127700543931047 0.0155144647811359) 12 2195 2
(0.338226128386444 0.211081134293422 0.433616821034798 0.0170759162853362) 12 2195 2
(0.151966560530783 0.543965568881403 0.139510947924695 0.164556922663119) 12 22 1
(0.199864084645359 0.520905950762427 0.149734396138239 0.129495568453974) 12 22 2
(0.407037568685547 0.211680807451913 0.154426590961767 0.226855032900773) 13 26 1
(0.379162958747601 0.317075749807101 0.253025392348568 0.0507358990967298) 13 27 1
(0.0519761955431952 0.752873201826122 0.121413038084877 0.0737375645458057) 13 27 2
(0.329726570698116 0.554427215878331 0.0397748995495758 0.0760713138739768) 13 27 2
(0.305738132213843 0.214335110290921 0.187647758107325 0.292278999387911) 13 1325 1
(0.365002197344826 0.357734737878101 0.0493397792305374 0.227923285546536) 13 1325 1
(0.423433250005179 0.0374298182393604 0.0997460267242922 0.439390905031169) 13 1325 2
(0.302702312615771 0.274089439162782 0.0193952488523384 0.403812999369109) 13 1871 1
(0.312987574628851 0.29729632027436 0.180739826727317 0.208976278369472) 13 2196 1
(0.048751799193095 0.00116645104006915 0.124989436324404 0.825092313442432) 13 2196 2
(0.161006687779413 0.238699661459995 0.520995589166382 0.0792980615942101) 13 24 1
(0.343440837894497 0.17276337101281 0.404365921726788 0.0794298693659053) 13 24 2
(0.0662407396194377 0.524036706093896 0.108162162321199 0.301560391965467) 14 28 1
(0.211349322692761 0.206635102993589 0.535362597906629 0.0466529764070208) 14 28 2
(0.0391569038013553 0.32926267203569 0.487702907634904 0.143877516528051) 14 29 2
(0.332057916101479 0.0271258976704985 0.012478204697286 0.628337981530737) 14 1343 2
(0.245296717305761 0.178937892406007 0.455340054352597 0.120425335935634) 14 1889 1
(0.27274103404805 0.499037105696539 0.0695554027007625 0.158666457554648) 14 1889 2
(0.109552082600255 0.585389754533669 0.271189064717314 0.0338690981487621) 14 2197 1
(0.210808033870918 0.430628374933229 0.197543390573126 0.161020200622728) 14 26 1
(0.0647894254894816 0.0123552845315698 0.629769723774262 0.293085566204687) 14 26 2
(0.129185681203271 0.290378570041053 0.036338399740441 0.544097349015235) 15 30 1
(0.231979514349725 0.3414106135511 0.321656125165684 0.104953746933491) 15 30 2
(0.0818917071701465 0.177762916216317 0.176130041808814 0.564215334804723) 15 31 2
(0.174363800458001 0.482973128869779 0.0348660612583329 0.307797009413887) 15 1361 1
(0.0830463143256925 0.517574305541484 0.187668322102891 0.211711058029933) 15 1361 1
(0.280298311696332 0.327051444084696 0.0581855568667905 0.334464687352182) 15 1361 2
(0.165830820504815 0.0328815570958489 0.763384726337485 0.0379028960618515) 15 2198 1
(0.0949930241605159 0.109338411455684 0.665692607800368 0.129975956583432) 15 2198 2
(0.375275721612814 0.386586988794107 0.00226815589385801 0.235869133699221) 15 28 2
(0.0657841209816629 0.296457790291349 0.171681880312208 0.466076208414781) 16 32 1
(0.415166139109741 0.00938643291546697 0.277297977506388 0.298149450468404) 16 33 2
(0.0617730139386122 0.779172609343781 0.0876283435699704 0.071426033147636) 16 1379 1
(0.323930738839826 0.0180604955069835 0.554475770880132 0.103532994773059) 16 1925 2
(0.033333408913457 0.434971396734347 0.106871817255833 0.424823377096363) 16 2199 1
(0.278022553261333 0.495153508224543 0.214094337912278 0.0127296006018463) 16 2199 2
(0.152032502790385 0.0640393205929888 0.25976187110373 0.524166305512896) 16 30 1
(0.645997939640096 0.013748827219583 0.201844550360155 0.138408682780165) 16 30 2
(0.0690139302926709 0.174280653978107 0.264748715974579 0.491956699754644) 16 30 2
(0.0230691680942756 0.0382301781904837 0.537645564537377 0.401055089177864) 17 34 1
(0.231667335054781 0.0576952745753471 0.345827825438189 0.364809564931683) 17 34 2
(0.298226828675048 0.545549765613737 0.0866182611360491 0.0696051445751653) 17 35 2
(0.0708297585859297 0.300020985370843 0.412259146249303 0.216890109793925) 17 1397 2
(0.0203930771771713 0.322319823989875 0.255927285839788 0.401359812993166) 17 1943 1
(0.0879958352940836 0.620305501288564 0.00413634832718653 0.287562315090166) 17 1943 2
(0.363843788157631 0.00698259510072383 0.114843911613767 0.514329705127878) 17 2200 2
(0.227775054619241 0.0672978553988135 0.646762392557399 0.0581646974245463) 17 32 1
(0.704449262761762 0.0903028345748288 0.0326371520227938 0.172610750640615) 17 32 2
(0.148452934920149 0.259513879091731 0.484601499609729 0.107431686378392) 18 36 2
(0.154074742954908 0.231291443992032 0.199167356769322 0.415466456283738) 18 37 1
(0.599012419584535 0.238760811813382 0.0542807464583613 0.107946022143722) 18 37 1
(0.372132543927447 0.0417483281554809 0.414395190053973 0.171723937863099) 18 37 2
(0.0162461258133682 0.445968869954551 0.469956624046868 0.0678283801852132) 18 1415 1
(0.293021346864835 0.606198891609754 0.0531314765786176 0.0476482849467933) 18 1415 2
(0.0852311754537002 0.131230471718858 0.275658043218374 0.507880309609068) 18 1961 1
(0.631848815916062 0.0944449304616059 0.140275747608962 0.133430506013371) 18 34 2
(0.510645777594158 0.0868933707025339 0.0804576657489936 0.322003185954315) 19 38 1
(0.259369072652218 0.34413995649125 0.337825811558219 0.0586651592983131) 19 39 1
(0.0352565486667916 0.437710514148784 0.341744735742009 0.185288201442416) 19 39 2
(0.612016530092017 0.292590818837535 0.0230279882512594 0.0723646628191892) 19 1433 2
(0.0165387211465738 0.0305455660393057 0.857473100016746 0.0954426127973742) 19 1979 1
(0.397039081024837 0.295618366078078 0.0820888236918117 0.225253729205274) 19 2202 1
(0.0759900215352741 0.521764755241274 0.219263390113087 0.182981833110364) 19 2202 2
(0.065942878281059 0.0614411885973982 0.852946940616077 0.0196689925054655) 19 36 1
(0.441403686180521 0.192947683935886 0.316824533598967 0.0488240962846262) 19 36 1
(0.148803408952876 0.153158142025614 0.186610090384471 0.51142835863704) 19 36 2
(0.25128741720257 0.100924394660423 0.100077558501626 0.54771062963538) 20 40 1
(0.132368902682633 0.298302247426968 0.0570309807091769 0.512297869181222) 20 40 2
(0.716271842666995 0.0539990786273815 0.17251503895825 0.0572140397473743) 20 41 1
(0.68910566578269 0.273947437921566 0.00706065243544318 0.0298862438603011) 20 41 2
(0.0621308204548166 0.674892844042565 0.0125592695534216 0.250417065949196) 20 41 2
(0.217622061450291 0.147634462309671 0.107069342641817 0.527674133598221) 20 1044 1
(0.10607160910116 0.393384598220976 0.108400576190933 0.39214321648693) 20 1044 2
(0.136896824734247 0.139445788312366 0.651817539566014 0.0718398473873737) 20 1092 1
(0.84069558211457 0.129379858244567 0.0203992093812059 0.00952535025965789) 20 1638 1
(0.421290010232394 0.429230503724335 0.03909303222859 0.110386453814681) 20 1638 1
(0.317084469410923 0.145989449715071 0.223787924418345 0.313138156455661) 20 1638 2
(0.00388698618198158 0.312414428276416 0.396695845292245 0.287002740249357) 20 1 1
(0.331197727600949 0.0517467380737779 0.253895659403718 0.363159874921556) 20 1 1
(0.00830535217008299 0.730879354244294 0.149318715171336 0.111496578414288) 20 1 2
(0.00879964709100145 0.228366951191843 0.150703743478691 0.612129658238464) 21 42 1
(0.331582915462004 0.596807229754733 0.0143845731061156 0.0572252816771469) 21 42 2
(0.138227261923576 0.719220250031974 0.117723409524271 0.0248290785201785) 21 43 2
(0.0299136297388778 0.210337414547541 0.171695597870127 0.588053357843455) 21 1110 1
(0.324646043618476 0.331440661576219 0.129330282622683 0.214583012182623) 21 1110 2
(0.500403559932663 0.0831173988257776 0.125156378594995 0.291322662646565) 21 1656 1
(0.0762667039787265 0.182891373894095 0.72432596838211 0.0165159537450679) 21 3 1
(0.203310645895917 0.0602380034835635 0.647558915702898 0.0888924349176219) 21 3 2
(0.0310950729761308 0.388278429463226 0.327029276588982 0.253597220971662) 21 40 1
(0.0395779419477897 0.088134967679033 0.677158291934649 0.195128798438528) 22 44 1
(0.0749686230104657 0.210981073471936 0.137899338763417 0.576150964754181) 22 44 2
(0.594657131095231 0.335754867796721 0.0183640890608849 0.0512239120471634) 22 1128 1
(0.0373027668562782 0.0108682043700106 0.442182836003529 0.509646192770183) 22 1128 2
(0.691440082166905 0.0306874048144277 0.272465712646374 0.00540680037229342) 22 1674 1
(0.105427223084796 0.447439823952078 0.0587391997151821 0.388393753247944) 22 1674 2
(0.393231998235951 0.0276515661772781 0.0674057425144596 0.511710693072311) 22 1674 2
(0.0121141277029005 0.397373286514244 0.414383429566079 0.176129156216777) 22 5 1
(0.283307317289126 0.109516105386699 0.201216520406773 0.405960056917402) 23 46 1
(0.406501835188299 0.0132730045618504 0.0491221801014223 0.531102980148429) 23 46 1
(0.0689014529873822 0.282620831132906 0.456735473670634 0.191742242209079) 23 46 2
(0.0799898346744758 0.804656983212065 0.0453741178592998 0.0699790642541595) 23 47 1
(0.451101624307567 0.0214633752727634 0.0940288536393719 0.433406146780298) 23 47 2
(0.0225425138685514 0.175878052608354 0.482090235246679 0.319489198276416) 23 1146 1
(0.0386318192602197 0.343094759725237 0.236588018101107 0.381685402913436) 23 1146 1
(0.04061718215112 0.115669736194373 0.304152598027382 0.539560483627125) 23 1146 2
(0.0355604562898626 0.260550657317047 0.615601396172897 0.0882874902201939) 23 1692 1
(0.0952236184837294 0.0466906873834699 0.737142585104231 0.12094310902857) 23 1692 2
(0.335678291106806 0.185298750617154 0.0677111923797148 0.411311765896325) 23 7 1
(0.34269092896117 0.616932204689044 0.0320723599374312 0.00830450641235463) 23 44 1
(0.0805418286108677 0.341145861289588 0.396953228505223 0.18135908159432) 24 48 1
(0.209911936796322 0.537427253434599 0.15560942960087 0.0970513801682089) 24 49 1
(0.0309922703610521 0.0520069064594798 0.498220719680121 0.418780103499347) 24 49 2
(0.170362469221868 0.0507210004683615 0.428677735090362 0.350238795219409) 24 1164 1
(0.631586236353935 0.0253506865997436 0.0024482047567654 0.340614872289556) 24 1164 1
(0.353169725852293 0.384223308369861 0.0314127030266091 0.231194262751237) 24 1164 2
(0.0810261736479616 0.185641602852604 0.650015510787025 0.0833167127124093) 24 1710 1
(0.442361083448163 0.448371605741468 0.0655902556416559 0.043677055168713) 24 1710 2
(0.132281231316893 0.521473886541378 0.0178402666864371 0.328404615455292) 25 50 1
(0.0983430454638793 0.378000087698011 0.0707377909341791 0.452919075903931) 25 50 2
(0.0881738303143856 0.0562392163896276 0.477302514639302 0.378284438656685) 25 51 1
(0.537614475890857 0.360554993428753 0.00390448185453356 0.0979260488258569) 25 51 1
(0.27029741693658 0.23128786395069 0.18239941985378 0.31601529925895) 25 51 2
(0.388499130728175 0.0223981271900501 0.426624305815903 0.162478436265872) 25 1182 1
(0.343380650637518 0.176376749707798 0.175473211848662 0.304769387806022) 25 1182 2
(0.595404989153159 0.0635754744290984 0.0115154657995221 0.329504070618221) 25 1182 2
(0.0433211746632245 0.110437184840871 0.426481125240307 0.419760515255598) 25 1728 1
(0.30468388713105 0.0857035218306745 0.0795007361853848 0.530111854852891) 25 1728 2
(0.504918379714547 0.244559888334959 0.0542666646710347 0.196255067279459) 25 11 2
(0.0458700248490138 0.797555845246341 0.00495040914174523 0.1516237207629) 25 48 1
(0.253225630163382 0.0864350551766237 0.0676963664729699 0.592642948187024) 25 48 2
(0.150819727324031 0.21292112734133 0.412573770043164 0.223685375291475) 26 52 1
(0.0320593908071451 0.413110394575148 0.271977702220373 0.282852512397334) 26 52 2
(0.368562303847911 0.191173826975162 0.387524353759579 0.0527395154173478) 26 53 1
(0.267787282637114 0.0227817552816271 0.343025654833599 0.366405307247659) 26 53 2
(0.0376902293066935 0.0659911181672933 0.721335233712547 0.174983418813466) 26 53 2
(0.365758527155093 0.128482574891946 0.434572805534994 0.0711860924179671) 26 1200 1
(0.353377583369644 0.00127903131597511 0.506172866033825 0.139170519280556) 26 1200 2
(0.00603472425406027 0.900313048310405 0.0580287729032495 0.035623454532285) 26 1746 1
(0.0887543650601693 0.279135248992744 0.288466588820793 0.343643797126294) 26 1746 2
(0.27901457802512 0.581427364838361 0.131253255443258 0.00830480169326177) 26 13 1
(0.338134627637802 0.0592616284901386 0.10775526032204 0.49484848355002) 26 13 2
(0.707666575407654 0.0862251399524416 0.131491781034171 0.0746165036057339) 26 13 2
(0.00814985628198117 0.0200385398982054 0.61424815459151 0.357563449228303) 26 50 1
(0.62124193552293 0.213764568290663 0.0933528187707104 0.0716406774156969) 26 50 2
(0.581378001649753 0.147802584469492 0.200194529364683 0.0706248845160723) 27 54 1
(0.383505943198719 0.15928061918935 0.331542567871343 0.125670869740588) 27 54 2
(0.0212632315073217 0.26135642728949 0.536162898624022 0.181217442579167) 27 55 2
(0.209230503255066 0.569469468917942 0.212944811638993 0.00835521618799835) 27 1218 1
(0.225791640410957 0.158819418766159 0.266829947056816 0.348558993766069) 27 1764 1
(0.155752340091678 0.167607866082871 0.449743382145159 0.226896411680292) 27 15 1
(0.192267042020148 0.0740833803764635 0.437096681907193 0.296552895696195) 27 15 1
(0.449126228760514 0.193290442375927 0.0338304429203421 0.323752885943217) 27 15 2
(0.0205902276014576 0.204562042603274 0.490932349044072 0.283915380751197) 27 52 1
(0.121612359600767 0.249745142730576 0.49599356072119 0.132648936947467) 27 52 2
(0.0102835381829809 0.595674552199818 0.381620938023495 0.0124209715937067) 28 56 1
(0.184040516044332 0.540043386154515 0.0448548733969862 0.231061224404167) 28 57 2
(0.262812315841682 0.329360574424725 0.221256516327334 0.186570593406259) 28 1236 1
(0.195599136376659 0.386294107766374 0.135530775953729 0.282575979903239) 28 1236 2
(0.58680452666555 0.0346959327096316 0.118342430087572 0.260157110537247) 28 1782 1
(0.195357163793128 0.130068415668701 0.233928222558544 0.440646197979626) 28 1782 2
(0.423443210634332 0.164346387376595 0.157558012827519 0.254652389161553) 28 17 2
(0.294724292628315 0.340800445391636 0.0156634430970201 0.348811818883029) 28 54 1
(0.134424233299683 0.205686126978458 0.0795402484645253 0.580349391257334) 28 54 2
(0.125546900802534 0.224785402728104 0.560187062858172 0.0894806336111894) 28 54 2
(0.266800199425681 0.538223587541426 0.170760564037695 0.0242156489951989) 29 58 1
(0.165642088265681 0.268417452428338 0.196260559452629 0.369679899853352) 29 58 1
(0.318735919048693 0.0213706038844559 0.109708397846704 0.550185079220148) 29 58 2
(0.166396347475408 0.594123987479073 0.144523740947255 0.0949559240982636) 29 59 1
(0.403171361439929 0.0988217992139494 0.388584107762529 0.109422731583593) 29 59 1
(0.674965706721492 0.189988474573813 0.00459608216536636 0.130449736539328) 29 1254 1
(0.440886946786295 0.0138439313384903 0.279977953948052 0.265291167927163) 29 1254 2
(0.0843105565637558 0.0790864680416714 0.0278492125792554 0.808753762815318) 29 1800 1
(0.109114850040442 0.342992267225869 0.394089325303505 0.153803557430184) 29 1800 2
(0.363893380491604 0.180990584209892 0.250534895098212 0.204581140200292) 29 19 1
(0.350518166357258 0.181815027427521 0.380782916621496 0.0868838895937247) 29 56 1
(0.432920193680585 0.226587150021624 0.0662015942038017 0.27429106209399) 29 56 2
(0.143573688022313 0.571303776013035 0.259120597367807 0.0260019385968458) 30 61 1
(0.0843279808813594 0.222397976857591 0.0578899368641884 0.635384105396862) 30 61 1
(0.00253471153344909 0.338564667925057 0.589988359082168 0.0689122614593264) 30 61 2
(0.16645076317872 0.236087679957787 0.0407046824062104 0.556756874457283) 30 1272 2
(0.379867628684148 0.151546625977557 0.417192889249984 0.0513928560883107) 30 21 1
(0.329044302929691 0.150598559085914 0.262048629300543 0.258308508683852) 30 21 2
(0.110623623537395 0.0194209800017064 0.490133190153695 0.379822206307203) 30 58 1
(0.031272952442888 0.397557755557827 0.206631544953729 0.364537747045555) 31 62 1
(0.269664481659834 0.0501583777095841 0.226597358595675 0.453579782034907) 31 62 2
(0.0203041043883873 0.749205340631261 0.208563717920241 0.0219268370601103) 31 63 2
(0.504868189813168 0.0850226001363858 0.14905399685045 0.261055213199996) 31 1290 1
(0.162586399583922 0.357679470419795 0.134176244373596 0.345557885622686) 31 1290 1
(0.0325758079906826 0.440953586867477 0.396648899881628 0.129821705260213) 31 1290 2
(0.067549470183922 0.0816957666719042 0.0810409975836378 0.769713765560536) 31 1836 1
(0.00100862393354673 0.12775581584993 0.0141089224717638 0.857126637744759) 31 1836 2
(0.841822454458762 0.00185326328388323 0.0440798011208366 0.112244481136518) 31 1836 2
(0.120021639358688 0.0801419518149619 0.707055941584987 0.0927804672413625) 31 60 1
(0.114944373838902 0.181563312240403 0.551698172104973 0.151794141815722) 31 60 2
(0.251578446323449 0.000886983472650318 0.123527790293373 0.624006779910527) 32 65 1
(0.307503428094935 0.139706213722047 0.451814287744742 0.100976070438276) 32 65 2
(0.26673901867129 0.195163812031763 0.353862077503521 0.184235091793426) 32 1308 1
(0.00791747413149624 0.156887245301782 0.677180429854277 0.158014850712445) 32 1308 1
(0.177716097892796 0.491909980883344 0.2926772674582 0.0376966537656599) 32 1308 2
(0.163897174326403 0.153655597107508 0.191915064893431 0.490532163672658) 32 25 1
(0.640516242277455 0.35716240523911 0.00134225714339969 0.000979095340035678) 32 25 2
(0.391434716777976 0.178125154298617 0.105686121215404 0.324754007708003) 32 62 1
(0.206215289569202 0.207821332844254 0.0815324025658753 0.504430975020669) 32 62 1
(0.544756143199135 0.0277642635884232 0.276029051701799 0.151450541510643) 32 62 2
(0.398063011541313 0.139336002703272 0.256100831688976 0.20650015406644) 33 66 1
(0.0456576950114531 0.250157771994424 0.0048391838196743 0.699345349174449) 33 66 2
(0.554752459404994 0.262465067976332 0.158416725352344 0.0243657472663303) 33 67 1
(0.123550708033041 0.262626953631474 0.101634402163522 0.512187936171962) 33 67 2
(0.11301060343104 0.366472787829544 0.0149406199369798 0.505575988802437) 33 1326 1
(0.00521063551743917 0.630470969831764 0.0266688943362215 0.337649500314576) 33 1872 2
(0.256601399108539 0.024043770887958 0.564071368005792 0.155283461997711) 33 27 2
(0.239342900236574 0.297037824374064 0.379721994060337 0.0838972813290247) 33 64 1
(0.0181787177280829 0.178199405538256 0.689175019733244 0.114446857000418) 34 68 1
(0.501131655171938 0.17096834542417 0.0352856179479699 0.292614381455923) 34 69 1
(0.0587856901349918 0.649156291691171 0.0620062704081778 0.23005174776566) 34 69 1
(0.537232339647108 0.0490992430842206 0.03961799377381 0.374050423494861) 34 69 2
(0.380678828364544 0.344534340349782 0.111539613515568 0.163247217770106) 34 69 2
(0.0154774249350431 0.317080270189161 0.237321144341983 0.430121160533813) 34 1890 2
(0.500686368286899 0.407761946318518 0.0324582312899032 0.0590934541046791) 34 66 1