/*--------------------------------*- C++ -*----------------------------------*\
| =========                 |                                                 |
| \\      /  F ield         | OpenFOAM: The Open Source CFD Toolbox           |
|  \\    /   O peration     | Version:  2406                                  |
|   \\  /    A nd           | Website:  www.openfoam.com                      |
|    \\/     M anipulation  |                                                 |
\*---------------------------------------------------------------------------*/
FoamFile
{
    version     2.0;
    format      ascii;
    arch        "LSB;label=32;scalar=64";
    class       scalarField;
    location    "0/lagrangian/dsmc";
    object      Ei;
}
// * * * * * * * * * * * * * * * * * * * * * * * * * * * * * * * * * * * * * //


5100
(
4.82648628257912e-21
8.18377260689721e-21
2.70935624176464e-22
1.32688777706216e-21
1.11715787506952e-20
3.14108173609004e-21
4.57993464333566e-21
2.06003945686891e-21
8.87287033552612e-21
2.22272041190353e-21
9.9511838299247e-21
3.15886493249941e-22
2.97617307829817e-21
5.55047435423329e-21
1.30278268359012e-22
1.11080329763887e-21
1.77550990081011e-21
4.2821902536553e-22
1.08871930511287e-20
4.28153580552201e-22
6.40622370468054e-21
6.20466129270653e-22
4.54106090913484e-22
8.81044695981578e-21
2.73832776007221e-21
2.26878575820686e-21
2.77536252082634e-21
3.52363199269754e-21
8.74254585867089e-21
2.13506168826076e-21
2.48554206721138e-22
3.09014704311143e-21
2.90646778657183e-21
1.88000882496197e-20
2.39734622007388e-21
8.24074239929338e-21
7.94504721989993e-22
1.27845335056542e-22
6.51680004772276e-23
6.41679011478094e-21
1.59151499817318e-22
1.1758349958149e-22
2.77704115047123e-22
1.32698944154285e-20
1.62393892835564e-22
3.1178377817345e-21
3.0531438989221e-21
1.24420058781683e-20
1.51941201052504e-21
3.07529414300063e-21
3.07082853103039e-21
6.1139895341083e-21
1.28718914017409e-21
2.71180124481409e-21
3.1022846102067e-21
2.348320343237e-21
3.31402609166842e-22
2.29270539539679e-21
3.39491117588214e-21
9.39320918587276e-22
3.99581138406063e-21
4.04594884856781e-23
4.76987340608236e-22
3.90569814189429e-21
8.92560385677306e-21
3.56884810825885e-21
5.07202745814752e-21
6.24464829699759e-22
1.47555411134871e-21
3.37491821290789e-21
1.72262418611234e-23
1.54570991775138e-20
1.17970633868596e-20
3.22751288923075e-21
1.06873632045503e-21
1.83344806322614e-21
1.08750200888495e-20
3.80527605892649e-21
2.04448160749787e-21
9.21408616052927e-22
3.23547702374639e-22
2.17361608753354e-21
2.21606352153219e-22
3.61952149514598e-22
4.15338102291737e-21
9.34982298738944e-22
5.32885572790028e-21
5.51210426258638e-21
1.80737616886468e-21
4.53999160152324e-21
4.26497314989403e-21
5.19190154464428e-22
6.33653800559859e-21
2.52930649116717e-21
1.90016592965494e-21
3.53874797979431e-21
1.37861668874017e-21
3.28364669110917e-21
9.68623225289466e-22
1.60466643856265e-21
9.3600676840848e-21
1.38553394467182e-20
5.85444725512792e-21
3.70534249996659e-21
1.54706450714006e-22
5.30157179943637e-21
2.68586714936361e-21
2.5304625001646e-21
8.19273343287851e-23
7.43754426374983e-21
1.62440020186876e-21
3.81004479479587e-21
2.77053936036751e-21
7.19899435550284e-21
6.16941715448676e-22
2.91187797778768e-21
7.53818087715183e-22
1.21837723655226e-20
1.26809442941485e-20
7.05534981110401e-21
9.14368822028449e-22
2.31189805001964e-21
2.69021358938704e-21
5.56432645246747e-22
3.28270695307615e-21
9.80115065657073e-22
4.34758414586717e-21
1.23085074186972e-21
3.85183610996791e-21
3.65527441232705e-21
2.14664269653387e-21
4.39829803951738e-22
4.1649750967799e-21
4.01808966164265e-21
1.58192569247327e-21
1.18118046268939e-20
4.437367232779e-21
1.25059298389719e-20
3.67741074796263e-21
3.76382857289491e-21
7.10237267719612e-22
1.78429769323041e-21
2.9658768034507e-21
1.45109058757573e-20
8.05112800228993e-21
6.16819972382064e-21
1.00406681439891e-20
4.03191710607311e-21
2.47337014279877e-21
1.0138212920826e-21
2.10121365692222e-21
8.35921043008162e-22
6.10600015931473e-21
2.93362748224935e-21
1.42972265441035e-21
8.79361109896668e-23
6.58458382835536e-22
1.27119056212235e-21
1.13648191851773e-21
1.15403364821911e-20
7.94499913872447e-21
5.20363526630059e-21
4.32962435541973e-21
5.07336998693492e-21
3.8414477785817e-21
7.71249551122535e-22
9.63848019188069e-23
3.28764426307957e-21
6.33343607795373e-22
8.23319847524849e-21
4.19020370102481e-21
8.27739890958662e-21
7.5498335377358e-21
1.64114801292402e-22
2.09180847981844e-20
2.98070902880884e-21
8.87436917811058e-22
8.72024276187009e-22
6.17171026238251e-23
1.83487332744798e-22
2.76511951083867e-22
5.10738727900582e-21
1.08315542042282e-21
4.99463877149225e-21
1.74433726878605e-21
8.81332843483698e-21
1.4801600571886e-20
2.2580352882541e-21
1.15680612553104e-21
4.76691225263244e-22
2.10647474176765e-21
3.73478247598255e-22
7.8945840595241e-22
1.24101830406232e-21
2.13642070589479e-21
3.86154991687222e-22
2.27284969791002e-21
8.45782085444614e-22
3.81926107031204e-22
2.38158514377648e-21
5.34231867539305e-21
9.65364490198711e-21
3.41291599121379e-21
5.44925214038258e-21
5.27826556875783e-21
5.90719732018974e-21
3.78384826590462e-21
2.2759133694736e-21
4.174626341095e-21
7.08694502238387e-22
5.72956777032941e-22
1.3681529933331e-21
9.0323805623258e-22
1.9319982322919e-21
2.69181850731049e-21
2.67906387099473e-21
1.56194488163606e-21
2.01597921336095e-21
3.13511741006291e-22
1.0714655993992e-20
1.59391495434496e-21
7.85087571354457e-21
1.9562403564223e-21
1.0724079342354e-20
1.11186934014111e-22
6.45123142638047e-22
1.36588998627775e-21
5.99633629245719e-21
3.94636510956723e-21
2.56822226768927e-22
6.40372218234245e-22
8.66177571887871e-21
1.59011591831233e-20
9.57394699114677e-22
1.1959611279513e-21
8.32259105423134e-22
1.34646580111862e-20
3.37972944568107e-22
1.91327531823644e-21
4.88203190929493e-21
3.14359870973401e-21
5.95671650658877e-23
1.23946334266124e-23
1.36703975559626e-20
2.72660564343422e-21
1.56743977965498e-20
1.96026653079725e-21
9.64646477456249e-22
4.2255353755268e-21
1.27972708156372e-22
1.50495592224624e-21
4.46419427731811e-21
1.87286000150703e-22
9.22897482457357e-21
8.6303161578079e-22
3.81404491128202e-21
2.14669638864664e-21
6.90604689268686e-21
9.31092973637893e-21
6.04967338068716e-22
5.91017274236237e-21
1.22929660046578e-20
8.39472085515366e-21
2.99080553761507e-21
8.79895285716019e-22
1.00863519833497e-21
3.49766763662447e-21
2.08311159844951e-21
1.1475608434546e-20
2.50836115252897e-21
1.43556614423617e-20
1.281631584313e-20
4.62858186081539e-21
5.61823948609032e-21
6.83945800519791e-23
1.07159583560103e-21
1.75397171232869e-21
6.6651704632487e-21
2.4481282196015e-21
2.90647707801075e-21
2.55822873268628e-21
4.72645041357582e-21
5.82523645748241e-21
6.02865953371384e-23
1.21880596802346e-20
1.0208301929516e-20
3.21330271766176e-21
6.63087575420322e-21
2.08896069468147e-21
5.85026864694504e-21
1.30591214836998e-21
4.46603506592415e-22
1.2175448330037e-21
6.96551413182016e-22
5.38261352224538e-21
1.90902582060599e-21
2.33940567303749e-21
7.30505390525444e-21
2.134330618285e-20
2.06705466717918e-22
4.19809676632042e-21
1.67442409913315e-21
4.45492558235614e-21
2.16771793352381e-22
5.6429023865009e-21
1.44127600898856e-21
1.92101389683538e-20
2.81382094714322e-21
2.0675965607411e-21
2.41574157041405e-21
1.30731495481861e-21
1.09097626881584e-21
5.35545736635429e-21
5.84688788967686e-21
1.59461630502682e-24
7.52090720470107e-21
2.52224305846563e-21
1.26448533689834e-20
4.05112481009896e-21
1.20094223658988e-21
4.78331602706691e-21
8.10976415767383e-22
4.64889213467915e-21
7.37577150492244e-21
3.98790739084764e-21
2.07649601791076e-21
6.10075274903555e-21
3.59357705086136e-21
1.24319654690828e-21
2.44672685058055e-21
5.68999674597906e-21
5.15275135699198e-22
4.24664121296693e-22
2.72721383615402e-21
5.82280352360289e-21
3.17051043051188e-21
4.155804227594e-21
5.78667606540828e-21
4.73915852347895e-22
6.63867071562849e-22
2.71499525760036e-21
4.49802548092546e-21
1.74999157287637e-21
4.23042344237742e-21
9.43512207144707e-22
5.41907956093527e-23
8.22273204452084e-21
1.34954512702819e-21
4.40920853117782e-21
2.3818505830096e-21
1.64505970260525e-21
3.48101773803158e-21
6.5354782148626e-21
7.93396006967083e-21
4.84330334386647e-22
2.15913403031859e-21
3.65257169699036e-21
7.22344813797649e-21
5.73981712729692e-21
1.09157784009107e-20
9.79401026776551e-21
9.32106470200036e-21
1.04039668500033e-21
2.5457679414314e-21
4.85899864403501e-21
3.90212667906106e-22
7.82166285456599e-22
2.65684035478279e-20
3.87236439281288e-22
3.27840030551e-22
3.83077867425332e-21
3.81442498653373e-20
7.91902528633785e-21
1.03360259163996e-21
1.10650662993303e-21
2.07046976168488e-21
1.62901876812665e-21
1.36301560730437e-21
6.566842961763e-22
9.62349936299405e-21
9.19662578784325e-22
4.07601700353077e-21
2.47956749863777e-21
5.4283161463607e-23
1.02404769362319e-21
6.81256648433154e-21
2.30977333040923e-21
1.42618630023686e-21
7.021239540219e-21
1.38252031172878e-20
4.87652638988405e-22
8.84541258917264e-21
1.58282368794496e-22
6.46360906484884e-21
6.53545974919745e-21
8.38746084982957e-22
4.32208573658506e-21
2.02181516406413e-21
1.61583509505465e-21
1.33751337685594e-20
8.81430609289832e-21
3.77157564090561e-23
1.03079186649804e-21
3.81082497041277e-21
1.06276723206103e-20
4.11215489372516e-21
6.65397336651751e-21
7.42992039777749e-21
1.67564313067814e-21
4.50053705999342e-21
2.31108166663843e-21
2.02016192803451e-21
2.77789090652416e-21
5.655467870915e-21
4.42176150662559e-21
1.40297379940546e-20
8.5758091735812e-22
3.75029926018812e-21
1.67816183390647e-21
1.27520195879813e-21
6.07375694126045e-21
3.79883649154105e-21
7.935894773289e-21
1.35172897918658e-21
3.47324022739944e-21
8.33779955277076e-22
9.3921676524305e-22
2.61862401985313e-21
3.2030152816511e-21
3.52007925331978e-21
1.98630796213207e-21
1.90217243722307e-22
2.96280042829688e-21
1.11540098806647e-20
3.35804278774198e-21
1.18407354427822e-22
1.60709692348095e-20
7.76781895647106e-21
1.03342982196419e-20
6.30614068118212e-22
3.91777756625158e-21
4.87616591952735e-21
1.83058881809026e-21
3.13592151236705e-21
1.85455838882182e-21
1.18353475507516e-20
3.40957150093861e-22
1.79655339768526e-21
1.73290185530767e-22
5.28342986354973e-21
1.2757823503506e-20
1.24113846804436e-22
7.1396994848835e-22
1.33484244734967e-21
1.09070270607372e-21
1.84589572458728e-21
2.39213955862944e-22
2.52875966874891e-21
3.64938956073199e-21
1.67542924558475e-21
2.13655874644309e-21
7.18136027564855e-22
8.07185936283634e-22
3.61291258062035e-22
1.461547224446e-21
1.48189869567764e-21
3.78231871940929e-22
4.99309939659032e-21
4.54199076434795e-21
9.1537022699683e-22
6.89996147148905e-21
1.65060810976579e-21
4.2932553792373e-22
1.12575266659512e-20
3.31547842179215e-21
1.19738628798782e-21
1.38338821448192e-21
2.97830338551054e-21
1.43033752730509e-21
5.62289029298434e-22
2.07990833127072e-21
1.23602251271308e-21
3.69579867232115e-21
1.71895457555471e-20
1.36382448898494e-20
4.29424391095517e-21
2.62789937719186e-22
1.59225313764712e-21
1.1230132554003e-20
6.74272861741244e-22
1.05470131792152e-20
7.22473153370145e-22
9.35126264463348e-21
4.50159578186018e-21
9.16013011785527e-21
6.79817165269762e-21
2.17403367727189e-21
2.4505967674827e-21
1.32584720694955e-20
3.67081008524206e-21
1.07390346205601e-21
5.33275213980121e-21
1.73447369126815e-21
4.64877969095987e-21
1.13033359297841e-21
1.71389017370409e-21
2.12347339832175e-20
6.81724107146146e-22
6.65538694147873e-21
4.16096848515918e-21
1.35184979053571e-20
2.33782837357109e-21
4.77759183698101e-21
3.40497241153664e-21
7.05142770349141e-22
1.74786650471558e-20
2.50217996707302e-21
4.11271464370456e-21
1.21014758280347e-20
9.70107859183855e-21
1.75902714925899e-22
1.22976222941169e-21
6.19393167810186e-21
9.07120367028385e-21
6.94037170294087e-21
2.90369692353774e-21
1.200555407708e-20
1.34236847504542e-21
4.29719320061663e-21
3.2871433046224e-21
1.53083193480032e-23
2.34608976765229e-21
8.29766403925958e-22
1.19264681771267e-20
3.14855433184049e-21
2.10206956432563e-21
5.15510489243384e-21
1.07501861261083e-21
3.63613311483601e-22
1.91600653938624e-20
5.33901503468375e-21
4.49280135194879e-21
5.5000298487617e-21
1.47714996072044e-21
2.26611902165997e-21
8.0835622776738e-22
4.3287971820101e-22
1.60722621320976e-22
1.53774644258185e-21
7.80476335357177e-22
1.37790878777094e-21
3.45647856587346e-21
1.20030907402983e-21
2.94712709937895e-21
5.23321180938936e-21
7.26043577489536e-21
5.35294336723645e-21
6.94904041393378e-21
6.36773170287012e-21
4.3587983991443e-21
4.21722107488799e-21
4.5747573603736e-21
3.23249380755614e-21
2.13308950700212e-21
7.1838264812872e-21
9.42357362958819e-21
5.45495098773417e-21
8.12477620662754e-21
1.32447449494339e-21
1.10608200184863e-21
3.82164305804106e-22
2.98357144326701e-22
3.12394059262987e-22
3.03287524396383e-21
7.17957338245083e-21
4.65986474809794e-21
2.57931050883635e-21
3.72205852435502e-21
7.95314116451896e-23
2.35997545226219e-21
1.73099542644793e-21
1.13727698936811e-21
9.92113544945746e-21
1.78524544743792e-20
3.79279551139294e-21
6.50711491586201e-23
4.36412149063798e-21
2.25545801318006e-22
1.22423861070483e-21
4.0305951052089e-21
2.66184827063192e-21
1.06668058671743e-21
7.96962872578861e-22
9.8749731374079e-22
5.55933519267712e-23
1.41562330679971e-21
2.18189104190942e-21
8.86056404885835e-21
2.99235620595809e-21
5.31090722720681e-21
1.57951946931744e-21
3.87893529021976e-21
1.65202958522726e-21
1.5597128273244e-20
1.48173541495056e-21
4.59831490427538e-21
2.75596049562117e-21
3.07519396589978e-21
1.35813417146734e-20
2.77037836442928e-21
1.17108999666297e-22
4.70845458666316e-21
3.04747826346257e-21
4.67137310663427e-21
8.20112954519577e-21
2.5435890247096e-22
9.62575042624858e-21
2.86836711621223e-21
2.88803166911896e-21
4.12013142743549e-21
3.63185402334846e-21
3.31707134201166e-23
1.62889979681876e-21
1.15381982049204e-20
5.38842640210009e-21
1.97981652963586e-21
7.28284893888793e-22
2.00964196948816e-21
9.10325404732519e-22
5.98752546224281e-22
3.53678426562594e-21
7.07473009837862e-21
3.90476951472763e-21
6.36343371644209e-21
2.18768708411141e-21
2.21196752720291e-22
1.37081490901425e-21
9.88810727170064e-21
6.16946584920823e-22
2.33321598357648e-21
1.34183849211717e-20
5.13091200082512e-21
4.25607034312447e-21
3.58066138902647e-21
3.44886015961607e-22
3.94337409907614e-21
2.00675453561555e-21
5.71958816641893e-21
5.38555411842838e-21
7.86853508364238e-21
7.08931112347831e-21
3.17959448655315e-21
1.07422826481379e-20
1.12807824880945e-20
4.03418812108397e-21
6.49279087781656e-21
6.18402637715587e-21
4.42018377998768e-22
1.28307920681515e-20
3.58164299977729e-22
1.35037376304305e-20
2.95366392824353e-21
2.49000298900793e-22
6.63638010610951e-21
2.66870300000648e-21
7.00936841578279e-21
7.88440847019935e-21
6.85864302303349e-21
7.83365469904477e-22
8.40144212579395e-22
6.54694234410342e-22
1.19421622051292e-20
2.86778248642916e-21
1.65426637463976e-22
1.89024090660648e-20
7.01819102298966e-22
5.0518112837523e-21
1.44269500668392e-21
5.83694170726617e-21
3.81885790440374e-21
4.52281718302113e-21
5.89201851876195e-22
1.9251866552394e-21
4.56856364497045e-22
1.93190942065523e-21
5.41038455443601e-21
8.92443747232486e-21
2.08521419881229e-21
2.53995207362393e-21
4.09208182971789e-22
2.81535606930638e-21
1.36241678580078e-21
3.97514430312747e-21
3.06902278043675e-21
7.39626411144759e-21
3.88955557649571e-21
3.86622180493511e-21
4.26003848536537e-21
5.83269952277368e-22
8.08606179449463e-23
1.90159009683659e-22
4.66371763656215e-21
1.33829421025924e-20
5.48103574245471e-23
4.34089443165406e-21
4.37209993189182e-21
1.49795701881613e-20
9.22048846658213e-21
4.42897752944768e-21
5.03367079484063e-22
4.11591771023289e-21
1.21093800152471e-21
4.55005758499471e-21
2.03838165259551e-21
2.13294442906435e-21
8.72856044843482e-22
7.66741063352153e-21
2.82177931961454e-20
7.49448204829919e-21
2.34370382911824e-22
2.55517164579382e-21
1.82274996252808e-21
2.03140108710356e-21
1.77734644958488e-21
3.04224955002416e-21
9.40574810661309e-23
2.40705578719373e-21
1.44017862301953e-21
2.31346590340587e-21
4.24061971811015e-21
3.42551677837809e-21
1.02416353714486e-20
1.17852657101345e-21
5.1623806543152e-21
3.11982097721757e-21
6.24371732995049e-21
2.42917645281339e-21
2.90462398157679e-23
6.52962847740444e-21
9.78353080461154e-22
9.90342722762608e-21
7.10480839619431e-22
2.14035943300125e-21
8.4594563430167e-21
2.795967375098e-21
7.40705715885257e-21
5.812964756137e-21
8.24773537984054e-21
1.77734308412867e-21
9.8585046400618e-21
1.61029214572873e-22
2.71738661689521e-21
1.13822002421614e-20
2.70405139724626e-21
1.6775264742848e-20
8.23062153913612e-21
1.67786782881992e-21
2.30436738366976e-21
1.76800827012772e-20
5.56746390170038e-21
7.05672384821436e-21
2.86861852497393e-21
3.30349813110683e-21
1.23267217794847e-20
4.31922775976848e-22
1.20278125838991e-21
5.68836160797617e-21
1.05913847358864e-20
1.26151558202211e-21
7.05853389366118e-23
3.04160604971038e-21
9.84610540690965e-21
3.72847983113004e-21
2.51262176056657e-22
3.46825645264244e-21
3.83643973293591e-21
1.74798397860752e-21
2.66091392795513e-21
3.06872564287902e-21
1.37992745191992e-20
3.09365771532771e-21
7.40322836605389e-23
1.99951645569905e-21
7.33779214611593e-21
1.65917808728657e-21
3.30496184531227e-21
2.79384327507241e-21
2.34308167758332e-21
6.27902130629318e-21
2.51929533156436e-21
4.4139511067466e-21
1.51290608002563e-21
7.94728769441143e-21
3.44546268533306e-21
2.51491449453638e-21
3.96026411449741e-22
4.58086012656269e-21
6.08771854592293e-21
1.63556619423839e-21
1.05648916963982e-21
3.55290426044209e-22
2.15449587766577e-21
3.42764209343401e-21
4.05997952864485e-22
6.02525517058638e-23
3.05065511081667e-21
2.26511856999386e-21
3.21614305639789e-21
1.31818441960704e-21
6.39147692805246e-22
7.79177993359028e-22
1.96101376757943e-21
8.85422393865049e-21
1.3263885032805e-21
5.96157273010154e-23
4.85074232848901e-21
6.22054139284713e-21
2.44420951542825e-22
1.74646642771604e-21
3.91601942661203e-21
1.81531173886603e-21
5.83061798273461e-21
7.22019973940855e-22
5.7526002672574e-22
1.26747092729874e-20
8.69168992621542e-21
2.84880433559018e-21
3.35012097369761e-21
1.51968119526489e-23
3.58065868938452e-21
1.67414015087023e-21
8.64129585156351e-21
1.17244707949082e-21
5.41807943319005e-21
4.6709527490693e-21
2.58405026113732e-21
5.77559866419033e-22
5.09223960775151e-22
1.41311850980354e-21
7.43729256271708e-21
1.60688883769061e-21
1.95134862309965e-21
1.592175123364e-20
1.75146559540075e-21
2.14518200517999e-21
5.10455817821306e-21
3.73835670030355e-21
4.43249737321481e-22
5.49582796272534e-21
6.39727943837842e-21
1.79477978790814e-20
1.35850150169419e-21
4.13696921179346e-21
2.86969997527008e-21
5.03738449834761e-22
5.39377257189165e-21
8.24400415440898e-23
2.4455815925887e-21
3.61787985211068e-21
8.29658254860337e-22
3.89352155399169e-21
2.19220166347392e-22
2.69198452142574e-21
7.06810332004036e-21
1.42749351255927e-21
1.23148266705674e-20
1.10663808238721e-20
3.02684768297306e-21
9.62234095232856e-22
5.09978085540819e-21
1.41758088272095e-21
3.94711460481151e-22
1.2745768397742e-20
1.36434837649454e-21
2.70680304161172e-21
1.13082133412182e-21
2.74355678668304e-21
3.24566208724921e-23
1.96170961604932e-22
2.26536605551486e-21
2.33666316612555e-21
1.03333042419584e-20
8.54823906090533e-22
9.51017217321986e-22
2.64933798037028e-21
4.29780632075689e-21
2.66298642934813e-21
4.63274687403849e-21
1.89680785076458e-20
5.80547665516671e-22
1.21635591819147e-20
3.76938080899736e-21
1.37094656082196e-21
8.72494796615913e-22
3.39706883022579e-21
5.25977997045798e-22
8.09239760054243e-21
1.04201402319257e-21
2.05767601436538e-20
1.14546978982174e-21
3.70453812300842e-21
3.05846836963323e-21
4.82069089061527e-21
1.12669165508311e-21
1.19330244052167e-21
7.36377097240094e-21
2.06344578166611e-21
3.40610862932924e-21
2.80979953731669e-21
2.33875062156676e-21
1.94208729023621e-21
1.24572932357367e-20
2.6260017540907e-21
1.69875574250355e-21
1.60769598258651e-22
1.19501943544444e-20
2.83686260887076e-21
1.79600725048386e-21
7.13712100717912e-21
3.23037523700185e-21
4.39387786747296e-22
1.86953845640391e-21
2.45841749824087e-22
6.70715592422273e-21
7.29669462295723e-22
8.60712273538767e-21
1.84616029017238e-21
4.31787967486048e-23
2.2037476817624e-21
5.38917523638573e-21
2.0443913977209e-21
1.02082750369657e-20
1.62116169628103e-21
9.07319983017478e-21
4.61541008199101e-21
1.6841554588577e-21
3.87944639530641e-21
1.03291668172381e-20
2.23188520460141e-21
2.38322337142681e-21
2.16984099679386e-21
5.44802753778282e-21
1.47806365259511e-21
1.11816717111997e-20
8.12347073008385e-22
9.48387645897794e-21
9.025382780063e-22
1.8948666425349e-22
2.88726888456106e-21
6.40224500637439e-22
6.51333305233398e-22
6.6084866136768e-21
8.98770888812287e-21
5.80572724310651e-21
2.07413165360374e-21
6.00055703858135e-23
1.93614054048717e-20
6.74818122216412e-21
1.44202805598847e-21
1.79284162513943e-22
1.705638990416e-21
2.86482233922297e-21
5.12057723758064e-22
8.27396165992932e-21
4.51617084807716e-22
3.07905109978151e-21
3.57874174438628e-21
7.34589989925522e-21
2.40043219818936e-21
2.01367896995298e-21
8.26706060672554e-22
1.27793767887883e-21
1.1509557053754e-20
8.87448036963008e-22
2.14753620312491e-21
2.65087279163332e-21
1.04470782149284e-20
6.08858904656727e-21
3.31821921988655e-21
4.66372922061083e-21
8.95497710022557e-22
4.07071060961289e-21
3.47564091400916e-21
3.76985965052573e-21
5.42861485930007e-21
5.25012269589574e-22
1.06137838476952e-21
5.81118566533393e-21
9.0581231263208e-22
7.82242054004289e-21
2.57890743047423e-21
3.38314069729146e-23
1.45566429781828e-20
3.9511988005541e-21
3.49057981682091e-22
5.44310093211689e-21
1.22848489772149e-21
2.02216454268681e-21
1.76477731058531e-22
5.60363253130994e-21
7.41993194489126e-21
2.9848847294798e-21
1.91328412440193e-21
6.28573640896765e-21
7.30724980014745e-21
1.19602246377646e-21
8.89110868006372e-22
7.86704887721959e-22
1.37380375784252e-23
4.32673097767559e-21
3.76438779179461e-21
7.59428487897298e-21
1.05911305721525e-20
7.88406702083969e-22
5.55937079307108e-22
4.52514633462479e-21
6.40466703034625e-22
1.09866668737962e-20
1.30856563339214e-22
4.35023955750522e-21
2.62741764091671e-20
1.11381262959703e-21
1.53191129914116e-20
6.41308352913482e-21
6.11439705202903e-22
9.7021477918251e-21
2.45571842788462e-21
7.09371397590226e-22
8.29740712428508e-21
7.55802274670153e-22
3.85997076571369e-22
2.20812862426487e-21
3.69705846609297e-21
2.33266712269473e-21
6.55250783293021e-21
1.6373985417362e-21
4.11788524576424e-21
1.1890099106193e-21
3.32336951670693e-21
1.41569160608003e-21
6.95769514152684e-21
1.10969209060228e-21
1.03227295705559e-21
2.53435905476876e-21
3.6979737023111e-21
8.35331054469134e-21
4.24400477780083e-22
1.89330407618677e-21
1.10505425353142e-21
3.96365588211538e-21
3.46820261478614e-21
2.63005428127632e-22
1.86734634639529e-21
6.33079582897301e-22
1.39610212646414e-21
8.20311154925058e-21
2.44253972895193e-22
1.84809843071809e-21
3.82496208747735e-21
2.76534948043689e-21
2.4840512226004e-22
2.73870433576972e-21
2.20871225899278e-21
1.54855113524792e-21
3.59208884174424e-21
1.83136365113073e-21
1.68143707047455e-20
2.36039457533904e-21
2.6190977114947e-21
3.02282008994302e-21
1.65432678129837e-21
1.32373617246983e-21
4.54747547911584e-21
9.28536153781742e-22
3.03181298099106e-21
8.92046873269052e-21
1.0373297152092e-21
9.88796525109077e-22
8.20371457382862e-21
8.92697122215219e-21
8.56335215537128e-23
3.63684770705755e-21
6.83023852226556e-22
1.55243326454878e-21
4.72553010025629e-22
7.91131561512749e-21
2.62899165285049e-21
7.08509037994716e-21
5.37318082162755e-21
1.73558976763063e-20
5.23199061175954e-21
3.3547881813634e-21
2.90941338239028e-21
3.14480862168996e-23
1.06098063744253e-20
6.69175365400112e-21
2.36233725316165e-21
6.11724738837088e-22
8.7235151257115e-21
6.06331511108309e-21
5.08968533878465e-21
5.99162858635951e-21
3.88533657990782e-21
8.50625181778628e-21
6.64158724850625e-21
3.26525519404691e-22
1.48695356876304e-22
1.66054991673658e-20
8.01165006881287e-21
5.24641944301922e-21
1.7707868472422e-21
1.45178244638632e-20
4.67796844157383e-21
4.67052315132434e-23
1.20713728374512e-21
3.94707572853708e-22
2.01673075712147e-21
6.04309247011077e-21
6.04808550107826e-21
6.09686982609504e-21
2.09423228723858e-21
4.23732965372145e-21
1.10603444706189e-21
7.47835609983806e-21
7.36035757353203e-21
5.66487823342677e-21
7.11974923743192e-21
5.09670966271987e-21
3.06163841505751e-22
2.11975279635816e-23
7.85894352597565e-21
2.69927780842202e-21
3.19182773688588e-21
3.86991180160346e-22
3.38412586781149e-21
8.33943467510843e-21
1.25305007438637e-20
1.93560260272302e-21
1.26119065468227e-21
1.20956108644083e-21
2.34063511977872e-21
9.93296365777884e-22
4.30095649106044e-21
2.20216789116196e-21
6.92779433466671e-21
4.59884821153118e-21
1.82309368046121e-21
2.79414869493971e-21
2.82563461885774e-21
1.59020122822967e-21
1.43007779631473e-21
2.08160477384389e-21
5.19918433373629e-22
1.74020419099638e-21
3.1155578841902e-21
4.16117395162326e-21
7.07968079198617e-21
4.90740265395054e-21
6.64824287762678e-21
1.62604441277563e-21
8.91153463609084e-21
1.7493273011585e-21
2.43165342037727e-21
2.43374127941361e-21
6.68422230791436e-21
3.14845202008409e-21
1.89943368546742e-21
1.00680076680617e-20
7.80919133918119e-23
1.15435544471819e-20
6.80634551014586e-21
3.39334024683401e-22
8.91093795065114e-21
8.25169787337804e-21
9.41092435684716e-22
1.98514978717632e-21
1.32752104200496e-21
1.85806704148651e-21
3.24961741439302e-21
6.68699019833751e-21
6.48778090764834e-21
5.90217135674602e-21
1.09090455881568e-20
7.87577435413944e-22
3.47492985125436e-21
2.22812105656623e-21
7.92561901552921e-21
5.55781533986769e-21
2.70479949882054e-21
2.93758803788199e-21
2.93666385233016e-21
9.30598124095349e-21
1.22477121167121e-21
4.10630075729406e-21
7.62844410228421e-22
1.05203988772269e-20
2.78218104334401e-21
4.2517184548544e-21
1.25011414616576e-21
1.1777474783114e-21
2.78002982697105e-21
1.52165006206053e-21
1.80768206640007e-20
1.48275873254802e-21
1.21207843133724e-20
2.67946926019044e-21
5.87230398931837e-22
4.43772234735737e-21
1.01854542026995e-20
2.09052938622175e-22
1.8548158789037e-20
5.90657964010472e-21
2.2945279957131e-21
1.47922949881034e-21
9.08643074251614e-21
7.14975831028606e-21
7.68642819701026e-22
3.73161770942576e-22
5.2187474528543e-21
1.13987058196145e-21
2.07054029448429e-20
1.64393205279837e-21
4.79697260790768e-21
6.62420773079932e-22
5.75328191174061e-22
8.49138162850002e-21
1.49693799569416e-21
1.32448104307159e-21
3.32757779443066e-23
1.98770347754216e-21
8.39875556408867e-22
1.48907379392531e-20
8.26879374351564e-22
7.94205251776768e-21
9.9441922167533e-22
3.2829166870895e-22
1.94190165083536e-21
3.76883613861189e-21
3.42774241070736e-21
1.12132777919652e-20
4.38165914491495e-21
6.81259303521375e-21
4.43885125801267e-22
2.11376503034737e-21
5.75060719039133e-21
9.32697771389592e-21
9.03274623070619e-21
7.54829548767033e-21
6.12301942521805e-22
5.31944787746879e-21
4.64936736531075e-21
4.54793163157468e-21
1.54826134153943e-21
9.80299853663121e-22
2.27747947650971e-21
1.90218016528914e-22
9.15459214382356e-22
3.31406494419484e-22
6.0640894678788e-21
1.24798456485897e-20
7.5553807981763e-21
3.56529075345988e-21
1.16077804721566e-20
1.6347972871608e-21
2.87423200659908e-22
3.87451129940645e-21
4.03898005119476e-21
3.50099728563955e-21
3.18638451867329e-21
3.35683944296121e-21
2.08585989828573e-23
2.06128879598965e-22
2.16783379785289e-21
2.31837004594427e-21
3.93394596627303e-21
1.67389256853207e-20
7.06922405591411e-21
6.14241617145968e-21
1.37673118348169e-20
1.70316005870301e-20
5.818866249021e-21
6.31336912489649e-21
5.79938776866275e-22
4.87322654918072e-22
6.9386092524236e-21
1.88388037342154e-21
5.12880006799104e-21
4.51085974596467e-21
6.66173245886757e-21
1.30817922285035e-21
4.32870518918132e-21
1.19361856384059e-21
2.79473754427003e-21
1.31820498532337e-21
2.20743966104407e-21
1.15153564463996e-21
1.43816085982725e-21
5.88735132771754e-21
5.63177575259828e-21
1.63345923949134e-20
6.601134077075e-21
5.87795301545161e-22
2.24144869721997e-21
2.90286472353208e-21
8.28284268501515e-22
2.24920786831127e-21
1.70757965592111e-21
4.60856250732365e-21
1.03381386975384e-20
1.15784195361244e-21
2.81123378042461e-21
4.20685206684303e-21
2.31399499894407e-21
3.10970992504409e-21
8.10538691779041e-21
6.97945244105799e-23
1.15877193813199e-21
8.54109134256819e-23
4.38532160101773e-22
1.83562862285867e-22
2.23157002712043e-21
3.80676752420894e-22
3.0647491754968e-21
2.33853816074428e-21
6.0557287383485e-21
1.69491408073289e-21
2.99955420984034e-22
6.92292463366169e-21
5.48819630287343e-21
6.02666353270575e-21
4.86636697715901e-21
1.55858691988403e-21
6.30884056014051e-21
8.281733950821e-22
1.49756988719976e-21
1.19007869738952e-22
3.50215673046295e-21
9.94386882085273e-22
5.84324036811774e-21
4.97755445295225e-21
3.03485238807875e-21
7.08230190828828e-21
1.64764908183784e-21
5.80750694707285e-21
3.55622721530623e-22
6.30102041528051e-21
9.58383504308007e-22
3.34424677069596e-21
2.22767277730512e-21
1.22317954795033e-20
1.26963168040113e-21
5.11991127600344e-21
2.85708375105678e-21
1.08708858353503e-21
2.41947325736276e-21
1.01823493060159e-21
1.58850939401544e-21
6.53330556933462e-21
4.5688585993596e-21
1.28478536170053e-21
5.64973275235022e-21
4.54751449607489e-23
5.80879465808369e-21
6.04287325921178e-21
1.57009831135539e-21
4.76575075556255e-21
6.65714670655563e-21
4.8180833405103e-21
9.25419450890371e-21
1.14158435369184e-21
8.18709575509595e-21
1.25694011289445e-21
8.40597695316574e-22
3.06726402069585e-21
3.72409313906655e-22
1.98681041515503e-21
1.05510742166533e-21
4.75476730272885e-22
2.33627575955543e-22
3.34385719358048e-21
2.67815492011494e-21
9.34469969857281e-22
1.42350950368388e-20
5.83885837653821e-21
4.15270923428987e-21
9.19571288653513e-21
9.50993514198896e-21
1.4424833720332e-20
3.24957965501988e-21
1.10064556850005e-20
3.12690482769278e-21
6.75880135938981e-23
3.28133434378719e-21
3.3742307817438e-22
3.41623394889213e-22
2.47820084605929e-22