/*--------------------------------*- C++ -*----------------------------------*\
| =========                 |                                                 |
| \\      /  F ield         | OpenFOAM: The Open Source CFD Toolbox           |
|  \\    /   O peration     | Version:  2406                                  |
|   \\  /    A nd           | Website:  www.openfoam.com                      |
|    \\/     M anipulation  |                                                 |
\*---------------------------------------------------------------------------*/
FoamFile
{
    version     2.0;
    format      ascii;
    arch        "LSB;label=32;scalar=64";
    class       Cloud<dsmcParcel>;
    location    "0/lagrangian/dsmc";
    object      positions;
}
// * * * * * * * * * * * * * * * * * * * * * * * * * * * * * * * * * * * * * //

5100
(
(-0.146301736689049 0.16953242378487 -0.00238202948495309) 0
(-0.146477265440377 0.166811239918966 0.00165948229904813) 0
(-0.149715248485289 0.171673158059533 -4.89912860206936e-06) 0
(-0.148706090170286 0.17067642367982 -0.00167906319474572) 0
(-0.149895042369769 0.167726872969044 -0.000132440641842141) 0
(-0.151680802041118 0.171747037577765 0.00311438189050799) 0
(-0.148866833015048 0.167500341347301 -0.00155614518472998) 0
(-0.148136436677848 0.165839848016242 0.00391984152350618) 0
(-0.147538768415253 0.170628902618338 0.00264578938906902) 0
(-0.148980668759789 0.169778918131306 0.00116602925466807) 0
(-0.151054345181511 0.165861995020384 -0.000333747903489128) 0
(-0.137326659356682 0.168222565845029 -0.00132679510369826) 1
(-0.138187083890048 0.166801555811631 0.00114309268113644) 1
(-0.142501362994298 0.171685895758298 0.000961156467241916) 1
(-0.141783056975305 0.169522256883474 -0.00307412832948079) 1
(-0.140952825640625 0.167450147019022 -0.00162073039589245) 1
(-0.139528706431452 0.16975172696731 0.00335083002945554) 1
(-0.141849695811704 0.169057522578613 0.00150571436158589) 1
(-0.139999628311159 0.165280546105152 -0.000554760908915618) 1
(-0.142564736241918 0.165427426290639 0.00126995175844742) 1
(-0.144674848923251 0.170185658084007 -0.00120208055765889) 1
(-0.144692994260516 0.17123605751015 0.00340730208814584) 1
(-0.129770177992651 0.166611754386653 0.0035330113910671) 2
(-0.13284554994718 0.171974519845049 0.00216601419220539) 2
(-0.134044090865928 0.171365896048349 -0.00130240071008757) 2
(-0.131026795349934 0.167885854969793 0.0027439753551383) 2
(-0.134191806345751 0.169627743070604 0.0016889526480896) 2
(-0.131127386234472 0.166407027404207 0.00115695148026202) 2
(-0.132623511521201 0.165495283845947 -0.00132050688944157) 2
(-0.134324623385364 0.1674166741082 0.00102127835524895) 2
(-0.136165772268253 0.170570032880314 -0.00232354627769042) 2
(-0.134201208710722 0.168558980906087 0.000770504002630601) 2
(-0.122995892526767 0.169369557748367 -0.000429872228955236) 3
(-0.124585295463235 0.167761004330596 0.00034785917525484) 3
(-0.127874972713605 0.172468057679796 -0.00227206519683994) 3
(-0.128110373809023 0.171398241465534 0.00129458673207837) 3
(-0.123318031978211 0.171159436954378 0.00248403906695087) 3
(-0.128755937529262 0.166136249152753 -0.00409919929762977) 3
(-0.1268615699041 0.166852301562252 -0.00212976799660792) 3
(-0.126024456152655 0.167836923188898 0.00237464589108616) 3
(-0.123884701441446 0.165313167258051 -0.00138121110892875) 3
(-0.129276076515724 0.165199301421652 0.00104265823835072) 3
(-0.125901366135105 0.166623792658968 0.000386522338984593) 3
(-0.127568582896866 0.170115093453323 -0.00156320596813411) 3
(-0.127734418544854 0.170448495347367 -0.000648002471941761) 3
(-0.129555184380485 0.167290629135369 0.000924144994746545) 3
(-0.118477772356851 0.170119300494281 0.00114424781042349) 4
(-0.115532959129469 0.172173053895849 -0.00201667801505926) 4
(-0.119238158081583 0.167982838929368 -0.00135048780524295) 4
(-0.11689259235731 0.168735682549639 -0.00142436845608188) 4
(-0.118712735563334 0.168215337266823 0.0016819088694362) 4
(-0.121535664393291 0.170478650297161 0.00386304966423226) 4
(-0.120898222159971 0.167831827171662 -0.00291484687862283) 4
(-0.119058796056701 0.168438164980397 0.000373405760242035) 4
(-0.106796188375917 0.171772271417869 0.00331376552454839) 5
(-0.10689108841494 0.167909239941405 0.00376039938880366) 5
(-0.110587412782602 0.171761697939977 0.000616503931389264) 5
(-0.109782979097492 0.17086299370699 -0.000539330279347581) 5
(-0.110459577013899 0.168445886608412 -0.00388763817002621) 5
(-0.107174092721933 0.168747770555308 0.00377617162914445) 5
(-0.112266943830737 0.168811351215683 0.00199850247767367) 5
(-0.108735599419822 0.16584516884046 0.00137019106947094) 5
(-0.111972365185235 0.167059301451895 0.000990068371647777) 5
(-0.112787572585288 0.17081823248923 0.0021965776072053) 5
(-0.11384332404894 0.166385141863494 0.00307961641821589) 5
(-0.113761420439178 0.166421859582036 -0.00158645730303389) 5
(-0.101620398557897 0.170474955415756 -0.00114087526930363) 6
(-0.10130666305712 0.16585334340441 -0.00335276368890518) 6
(-0.104350170194873 0.16893032375984 0.00404317623327867) 6
(-0.102927709701607 0.169073160690862 0.00372441653459218) 6
(-0.104428112696274 0.166014350292344 -0.00272459499322367) 6
(-0.105191481702312 0.165495619195178 -0.00114564319875731) 6
(-0.106251947250855 0.166795042263346 0.000320746161796824) 6
(-0.0926235578390418 0.16732866662975 -0.00206534472381524) 7
(-0.0929161163520485 0.166637894168862 -0.00173117205604407) 7
(-0.0980542229518589 0.171499743514165 -0.000341486378713177) 7
(-0.0932907490449011 0.16778994334449 -0.00306131291330376) 7
(-0.0957974196096023 0.170519667903833 0.00263211180830799) 7
(-0.0975729002149432 0.169801944651881 0.00211610945895948) 7
(-0.0853097060570603 0.168520462271229 -0.00213297269252793) 8
(-0.0840823543189465 0.17111370638309 -0.000164796769351328) 8
(-0.0892098213900465 0.172080886602865 -0.00184775535107137) 8
(-0.0853689094348147 0.17169502163427 0.00223887592019482) 8
(-0.0902194904002098 0.169250050998714 -0.00296774896340015) 8
(-0.0871601704261091 0.166634317777057 0.0032602726937679) 8
(-0.0896753438621335 0.169344268516452 0.00383057615408364) 8
(-0.0857054498068893 0.166516082011158 -0.000863726325925409) 8
(-0.0903135503283877 0.168923631583151 2.80658490066707e-05) 8
(-0.0912357993411376 0.170869249405586 -0.00296085328850864) 8
(-0.0903788626271947 0.167457550169739 -0.00115799353322774) 8
(-0.0770393953428692 0.171535364508337 0.00118134338293954) 9
(-0.0768459855980683 0.167091215596476 0.00101190562233883) 9
(-0.0800888045875159 0.172248260524813 0.00026948737704209) 9
(-0.0798568865176044 0.172076828307032 0.00217610581287447) 9
(-0.0780682861964248 0.172046364766162 0.00213701101343677) 9
(-0.077881350579476 0.167950248501781 -0.00404648238235522) 9
(-0.0823608254098082 0.166314361372179 0.00242614880033469) 9
(-0.0819225381948013 0.169330546249231 -0.000997909298682566) 9
(-0.0689003953725968 0.167426187737749 -0.00358054546319076) 10
(-0.069252827637463 0.170176226658331 0.00315681969942641) 10
(-0.0688528776488583 0.16614623788662 0.000553027452154064) 10
(-0.071310521629105 0.171658526666147 0.0024170046178388) 10
(-0.0716450464067177 0.16916697848939 -0.00209134113084698) 10
(-0.0717867983503716 0.169275106089195 -0.000850939777524435) 10
(-0.0715314279113708 0.169105795111072 0.000981642405796536) 10
(-0.0739710198285514 0.170637994036515 0.00293909567206526) 10
(-0.0708640793392545 0.165270883781895 0.00209309508045973) 10
(-0.0630001469281003 0.170227836278404 0.00145697353907458) 11
(-0.0628238137380409 0.170990198612705 0.00243467279442009) 11
(-0.0652841899455899 0.171579864532183 -0.00109768956600901) 11
(-0.0664152814069875 0.169786428542072 -0.00228555303841545) 11
(-0.0638457766418529 0.167281676195805 -0.00331995931373334) 11
(-0.0634306388293192 0.169886734287717 -0.00371420528476553) 11
(-0.0641859914159328 0.170631212014224 0.00266617380180403) 11
(-0.0638238997470407 0.165700099254072 -0.00144645380523398) 11
(-0.063711919254176 0.167127837056425 0.00178408938565698) 11
(-0.0671630668531567 0.167024301177458 -0.00246879497473871) 11
(-0.066896729180087 0.16826698823589 -0.00072982826193949) 11
(-0.0546915159766715 0.168416285200596 -0.00242108924136351) 12
(-0.0534859973232902 0.167875077683487 0.000646789079342153) 12
(-0.0553470958072628 0.172389613223384 -0.000775414780811838) 12
(-0.0560022653062287 0.168315979650527 -0.0031728465258489) 12
(-0.0548270309308307 0.167622785427837 0.00370677030644768) 12
(-0.059686557538286 0.167740301583084 0.00293147057669309) 12
(-0.0587218692094044 0.168659936135953 0.00215482089769424) 12
(-0.0586059245473325 0.165689680609631 -0.00297675693516908) 12
(-0.0579033705395988 0.16705821770283 -0.000691790099647666) 12
(-0.0563745955446773 0.166268347981449 0.00100636873271219) 12
(-0.0603889314210974 0.167850383631399 -0.00238984848320327) 12
(-0.0602064179054589 0.166720707080825 -0.0010150391419149) 12
(-0.0472770166554763 0.16938600306154 -0.000584859935154206) 13
(-0.0515155412586761 0.171078138904696 -5.5920725119576e-05) 13
(-0.0516617019642342 0.172305089266713 -0.00296183045880562) 13
(-0.0512077129098539 0.171263525359882 -0.00248103924685148) 13
(-0.0499545265928639 0.169745968677016 -0.00291589984470186) 13
(-0.0502191557678674 0.168448231225871 -0.00266699077115173) 13
(-0.0476247450439469 0.167335969887952 -0.00242158034997825) 13
(-0.048968282778082 0.169163731167577 0.00292865028701376) 13
(-0.0491843344099341 0.166173703404858 -0.00113005144825526) 13
(-0.0522086867749464 0.165182819246974 0.00398544425465242) 13
(-0.0527334840162166 0.170105977459877 0.000852591037671143) 13
(-0.052038318687203 0.166883627162349 0.00130633616433551) 13
(-0.0383574103383199 0.168321321930723 -0.00138868160108844) 14
(-0.0389103465941208 0.169807779444398 0.00157659797954426) 14
(-0.0407635182055191 0.172353161610745 6.11634200988858e-05) 14
(-0.0395770331554516 0.16633880372061 -0.00280535675237379) 14
(-0.0404033888193198 0.166823052709414 0.0031697537873158) 14
(-0.0441566385657774 0.167734442829596 0.00305448765699819) 14
(-0.0429837035300494 0.165410820309751 -0.00345538082862933) 14
(-0.0449227159869349 0.168479757060985 -0.00165524177692789) 14
(-0.0454791198941723 0.167441102092121 0.00382410002287899) 14
(-0.0309762620382251 0.16983771442018 0.000912997592781713) 15
(-0.0313679579394296 0.168282344117554 0.000357836885901915) 15
(-0.0321507795346564 0.172192906098112 -0.00237656247869135) 15
(-0.0350948657296116 0.168223837281759 -0.0034676720380764) 15
(-0.0361751020460158 0.168306769029718 -0.00385120547983209) 15
(-0.0340445357720883 0.166487510345362 -0.00302274709087541) 15
(-0.0313664886881611 0.165621865576893 -0.00318512622696023) 15
(-0.0326697857173898 0.165356223840602 0.00288258664229808) 15
(-0.0366750118627944 0.168176302458792 -0.000623488736644316) 15
(-0.0231136703930006 0.170029876119134 -8.66654119285534e-06) 16
(-0.0245165245783264 0.170943126978338 -0.000126999204685427) 16
(-0.0297042761317688 0.166424556627652 -0.00394055334145783) 16
(-0.0250240020697734 0.171149806013048 0.00283949089687273) 16
(-0.0263049339691772 0.165125000283425 -0.000491483314954033) 16
(-0.0277929821115682 0.16604258457473 -0.00112698419278376) 16
(-0.0299046801481172 0.171449583210089 -0.00137946377100905) 16
(-0.0280224248510014 0.168460557394502 0.0013713185048671) 16
(-0.0302210224186198 0.168948477486757 0.00244618399935469) 16
(-0.0153299050650232 0.172126764283218 -0.000734246744909988) 17
(-0.0161247683802262 0.168462461197242 0.002742356886337) 17
(-0.0205360280944086 0.171381649392469 -0.00221985392602198) 17
(-0.0177983567246029 0.168357555191567 -0.0039025150139391) 17
(-0.0177761071992104 0.168086672636863 0.00411434907585588) 17
(-0.0224961687590104 0.167517724357983 0.00383041749176485) 17
(-0.0206013477948168 0.166364414205591 0.00261320229089187) 17
(-0.0219950631543734 0.171141109629687 0.00218945932688297) 17
(-0.0201786960842463 0.168936265365161 0.000482769285972036) 17
(-0.00818667990851323 0.169191209753024 0.00139658108896484) 18
(-0.011488628328632 0.171922219713919 0.00161003795005632) 18
(-0.0121368065404158 0.170253703426558 -0.000321442981487455) 18
(-0.00935717506750846 0.171104502960272 0.000843876280948649) 18
(-0.0146631740521967 0.169094310503541 -0.00413176627158385) 18
(-0.0133573995951864 0.166497316125083 -0.00296931034316769) 18
(-0.00894588081903575 0.169128719230019 0.00384202906309446) 18
(-0.0128343400869518 0.168370161854785 0.000752897557275052) 18
(-0.00322119798431963 0.170585078334022 0.00132538342020325) 19
(-0.000988325851341277 0.16894631630387 -0.00261786255675485) 19
(-0.000134345078694809 0.167695297575566 0.000375154176749688) 19
(-0.00456192361827648 0.16746777189973 -0.00162953057361353) 19
(-0.000295808555714568 0.16577783980028 0.00413053737118439) 19
(-0.00376582498612617 0.166488896553843 -0.000640304534371385) 19
(-0.005660433726888 0.165284962580757 -0.000501982034474856) 19
(-0.00736972466231003 0.171791905291966 0.0032417143899555) 19
(-0.00593903125380912 0.169397628547304 0.00031522156418951) 19
(-0.00705398461018507 0.169393725473351 0.00228849728938277) 19
(-0.14575653070325 0.178300739225537 0.00145617644118799) 20
(-0.145303391703672 0.173424115740379 0.00113831173034641) 20
(-0.149254617946603 0.177313980589999 0.000738066000328619) 20
(-0.149512590563865 0.177415853753315 -0.00124644672325498) 20
(-0.150179107855791 0.179767009423294 -0.00383355268984103) 20
(-0.151590751134844 0.177273638732425 0.00204585785850754) 20
(-0.15201581413352 0.176651846979213 -0.00284393440177129) 20
(-0.151350863172411 0.178440793494904 -0.00362503333611616) 20
(-0.148988474415329 0.175724048559877 0.000669078555118808) 20
(-0.149675491252874 0.174907735941982 0.00243058195702394) 20
(-0.149506261857317 0.177716012366846 0.00286824522847412) 20
(-0.149381969602181 0.172514576198182 0.00155939346051378) 20
(-0.149223032238661 0.173741991478504 0.00237429694425628) 20
(-0.15040067910314 0.172531145070638 -0.00322854626220563) 20
(-0.13721153105524 0.17825424918947 0.000978847646985307) 21
(-0.138441496699368 0.173851320231278 -0.00220582897488018) 21
(-0.143185892507053 0.179481647767787 -0.0026305688599171) 21
(-0.140203459473755 0.178310293279373 -0.00407436275509671) 21
(-0.140940973031081 0.174687399783239 -0.0028364866168024) 21
(-0.139718225461575 0.176561433319597 0.00209830504828282) 21
(-0.138988297519449 0.17278600013992 0.00234339230257895) 21
(-0.138411789040735 0.17326241492211 -0.00259939883392912) 21
(-0.144680512224424 0.176971305255365 -0.00132235477015281) 21
(-0.129707811747792 0.179190570460103 -0.00239469073693565) 22
(-0.129842667937981 0.173815377377015 0.00211289076619178) 22
(-0.13452168156825 0.175251874249917 -0.00170244004940003) 22
(-0.12978196877861 0.175956256645737 -0.00404332837920363) 22
(-0.132425601145188 0.175133451310918 0.001295951654899) 22
(-0.136328618125406 0.176248849233791 0.00375720566304386) 22
(-0.135165890307019 0.178317993260286 0.00254842560740901) 22
(-0.133973822999665 0.172545427978886 0.000811185056928168) 22
(-0.12301554253253 0.178116226769766 0.000399955210720506) 23
(-0.123484975242985 0.17837607058383 0.00196857274103765) 23
(-0.122198548986608 0.176183896501232 0.00153659891593659) 23
(-0.128718888286292 0.179700038119971 -0.00289507596461414) 23
(-0.123818495122378 0.178308368908847 -0.0015155308073375) 23
(-0.127036274570839 0.17859638017843 -0.00410532144175208) 23
(-0.126500968997106 0.177281919979835 -0.00403774635910708) 23
(-0.122972290832124 0.174933458918272 -0.0040294078349653) 23
(-0.124057159678106 0.173295507887738 0.00405064608358258) 23
(-0.123576386760688 0.17929273127531 0.00380006080236834) 23
(-0.127761870874612 0.173758793591651 0.00123364167216732) 23
(-0.128251176215193 0.174087917481228 -0.00249129027488866) 23
(-0.114621904637922 0.177139374183037 -0.00233830803444206) 24
(-0.120396501996576 0.179212830237014 -0.00119601906339518) 24
(-0.114829440680338 0.179883778986146 0.000115221580829439) 24
(-0.118617663952663 0.178980733236905 -0.00348447762926815) 24
(-0.116933514704655 0.177441421464175 -0.00154733780731347) 24
(-0.118588919073447 0.174059981744646 -0.00271668715142037) 24
(-0.116038524890025 0.173428723496523 0.00385969007067856) 24
(-0.119750519753276 0.174978358894008 0.00234208344951771) 24
(-0.107198057631933 0.175592891233501 -0.000885820058644597) 25
(-0.10706873617474 0.173399319852496 0.000611758472388418) 25
(-0.111096107912584 0.179669348136321 0.00335726049500671) 25
(-0.111520125621516 0.177983945715409 -0.00108664274354312) 25
(-0.109486613118405 0.178986384686488 -0.00153259572209461) 25
(-0.111596375899578 0.178375142305844 -0.00256830365094166) 25
(-0.109346619178777 0.175103726528756 -0.00275780126732242) 25
(-0.109447299401792 0.174819134702821 -0.00169929904555673) 25
(-0.107700717121726 0.175810658269404 0.00401805106641446) 25
(-0.112548126937618 0.178214659009528 0.00292032767404959) 25
(-0.110481782394903 0.17439344392393 -0.000430800240051445) 25
(-0.114140212270313 0.173846318567469 -0.00396576245884348) 25
(-0.113350083736262 0.177894418224515 0.00241039788983016) 25
(-0.0996476985709682 0.177837517567475 -0.00168759999279068) 26
(-0.0991951623086706 0.17466005548218 0.00059522324417875) 26
(-0.104887665494192 0.17861789136057 0.00104617817724741) 26
(-0.10026702319749 0.178995797690111 -0.000193877912321885) 26
(-0.0997195369303261 0.1798586616401 0.00201751492627351) 26
(-0.104757767921958 0.177664786211479 -0.00266381418594861) 26
(-0.100429292779089 0.17762146243289 -0.0027158141498475) 26
(-0.105957281057944 0.172789806124945 0.00417465415813295) 26
(-0.104157397618535 0.177573656763579 0.00382723166674729) 26
(-0.104630533890702 0.173546304667594 -0.00185585109234773) 26
(-0.100813094869337 0.173768004853642 0.00137689269789893) 26
(-0.102426685277168 0.175153749657779 -0.000601021752999689) 26
(-0.106662944972638 0.179819148989706 0.000993913894953009) 26
(-0.10432675760469 0.175366962338829 -0.000204838502837874) 26
(-0.0936673408752864 0.176711313110292 -0.00116496336313603) 27
(-0.0929133493965587 0.17642471654603 0.00125131783737484) 27
(-0.0935248208760319 0.179920262881848 0.000393073920772534) 27
(-0.0982120520647778 0.174944364595909 -0.00332123188632872) 27
(-0.0935227418362028 0.175960911104787 0.00325167511027398) 27
(-0.0950520113927524 0.173084071275344 0.00213793409651884) 27
(-0.0950092526235675 0.173221001407576 0.00277017802835308) 27
(-0.0946364619560389 0.174184223357852 0.000405854402717182) 27
(-0.0989945409377246 0.17838857132697 1.03106878963245e-05) 27
(-0.0986095961037413 0.173950913375609 0.00159136889073994) 27
(-0.0838701854222463 0.175493877590315 -0.00405247297824434) 28
(-0.0886479570322705 0.179309848064834 -0.00305024889607912) 28
(-0.0890286991781362 0.176544249507408 -0.00309618827346494) 28
(-0.0875202779044508 0.174249977581065 -0.00337848362721803) 28
(-0.0863314363520392 0.176651695304025 0.00173542098800469) 28
(-0.0889248245432476 0.178291897518261 0.00337949991206886) 28
(-0.0866970141723191 0.174087912039879 -0.000282458446378757) 28
(-0.0903289530829398 0.176338780562207 -0.00283058504894611) 28
(-0.0909397764590116 0.177356711309304 0.00190765475352229) 28
(-0.090973603534492 0.173641905630093 0.00178450563371328) 28
(-0.0772266421599116 0.174962822345593 -0.00287602771085247) 29
(-0.0768411791773364 0.177365711275791 -0.000398992070515985) 29
(-0.077424543219535 0.174518072680283 0.00268179606736606) 29
(-0.0824732876203921 0.179376013696967 -0.00148950615422093) 29
(-0.0814608048898346 0.1784881073946 0.00167657716855512) 29
(-0.0802648857323715 0.176043965040491 -0.00136514403176973) 29
(-0.0779955043114598 0.176253160705059 -0.00234827482349756) 29
(-0.0771339833487318 0.178881817808229 0.00384589566243223) 29
(-0.0804118631157829 0.177018377308154 0.00374171762983014) 29
(-0.0805350578380933 0.173864600176843 0.00115132689457217) 29
(-0.0824953505270957 0.177321944170454 0.000470752798321051) 29
(-0.0821813576019801 0.176180633692007 0.000478403126359904) 29
(-0.0754647516877444 0.179461598669916 -0.00120196120820321) 30
(-0.0710464059616221 0.179683770071695 0.00197767947469453) 30
(-0.0711788598525551 0.17999049483175 0.000766548004730694) 30
(-0.0710224848420508 0.173429475479967 -0.00350090679464938) 30
(-0.0715830873919249 0.173924503607566 0.0013315643013151) 30
(-0.0709905349351073 0.173733916135986 -0.000648222454750941) 30
(-0.0757884686825108 0.179439504061722 0.0003817380161481) 30
(-0.0610871655852836 0.176901043261655 -0.00100653652455721) 31
(-0.0619955565073648 0.175210721995692 0.00264607880426819) 31
(-0.0667550626907228 0.179923859608544 -0.00236278753103875) 31
(-0.0646756979829197 0.177469074787178 -0.00207955360278469) 31
(-0.065335967878055 0.176707704973412 -0.00351713712174753) 31
(-0.0644526374018655 0.175597026029077 -0.00406318160643913) 31
(-0.0618480006939424 0.178526163754894 0.00391629222522753) 31
(-0.0684776325403439 0.179038049041375 0.0041957637794791) 31
(-0.065045303372943 0.176829266321151 0.000664345691273199) 31
(-0.0681316575432237 0.178948854213793 0.00224336079462038) 31
(-0.0681510044634869 0.174069497465514 0.00219210180705723) 31
(-0.0552538046605864 0.179056580826287 0.00313591986427125) 32
(-0.0555834428675315 0.178846862144644 0.00088675441505456) 32
(-0.0585475353347954 0.177536000089744 -0.00307969612158058) 32
(-0.0597335992875424 0.178793655132244 -0.00416674660864772) 32
(-0.0577730331553325 0.175361514873035 -0.00345359238885026) 32
(-0.0588808851076764 0.173114614403724 0.00222092485212604) 32
(-0.0585096218315255 0.17490193590854 -0.00150160738157839) 32
(-0.0594764380117175 0.177196181154843 -0.00166821077132311) 32
(-0.0601822166390966 0.177668032667784 -0.002649023602256) 32
(-0.0588922067163397 0.175678714598327 0.00167880438442088) 32
(-0.0472428191054782 0.177462243686446 -0.000793534057368394) 33
(-0.0458999786468411 0.172707510234941 0.00190691239619874) 33
(-0.0510474243935206 0.177919678277231 -0.000334666900502165) 33
(-0.0481982699865854 0.179536684844876 -0.00282735804808764) 33
(-0.0490633784849627 0.176827664328412 -0.00372535546558963) 33
(-0.0531239012296245 0.175251927843071 0.00417811533082676) 33
(-0.0468870172092402 0.173462255246657 -0.00181789304296336) 33
(-0.0524349838786485 0.176874680441307 -5.09506889955619e-06) 33
(-0.0381742700039029 0.178595334266983 -0.00316229578673854) 34
(-0.0415864236268917 0.178120756293105 0.000659112946714834) 34
(-0.0437487727580185 0.179779553661994 -0.0014998127487728) 34
(-0.0405263091617701 0.177985378726323 -0.00161083302578214) 34
(-0.0421812728832888 0.178572454393633 -0.00166421616733814) 34
(-0.0438583988312548 0.177563857630075 0.00413499481527282) 34
(-0.0438181345936428 0.175064211521535 -0.00182446811035984) 34
(-0.044451330899088 0.178002399735054 0.00247303854293288) 34
(-0.0311769285297873 0.178416406063621 -0.00193164184985529) 35
(-0.0305622279652342 0.177660289630996 -0.00200674325848932) 35
(-0.0308859665332242 0.1781523909793 0.00231290216002893) 35
(-0.0341022858829667 0.177483182893112 -0.00189868574476325) 35
(-0.0305658282117519 0.17770536030587 -0.004137656171887) 35
(-0.0336048782179717 0.17661304938886 -0.00193771697037627) 35
(-0.0314048126982947 0.174704115467707 0.00367008149665715) 35
(-0.0358430999191584 0.174233713364138 -0.000554876402812684) 35
(-0.0241244583848271 0.174716885269951 -0.000516123650228426) 36
(-0.0285178237790356 0.178771799391103 -0.00172483432912667) 36
(-0.0294789513508627 0.174890721823193 -0.00369856483709636) 36
(-0.0264967205099287 0.17439228784579 0.00252464529722374) 36
(-0.0262016695830733 0.177195241535072 0.00224083197867565) 36
(-0.0274976658604837 0.173538279600318 -0.000842183741991842) 36
(-0.0276669951739728 0.173155905734882 -0.00169595207215963) 36
(-0.0288164841541041 0.176538243269446 -0.00197627488984509) 36
(-0.0173625060155125 0.177221641227218 -0.000524176153032057) 37
(-0.0170112217160788 0.174809618720672 -0.000450140336365226) 37
(-0.0174928789620627 0.177956314999588 -0.000257941373041681) 37
(-0.0192092358304556 0.177557528837339 -0.000459215654232755) 37
(-0.0177350269651792 0.176217160656055 -0.00190974677345312) 37
(-0.019801826026903 0.173608487640525 0.00344207051696592) 37
(-0.0199867983010661 0.173416945130297 -0.000378628907389645) 37
(-0.0197277124256613 0.175009236552764 -0.00104335633456426) 37
(-0.0219846173929359 0.178534596943735 -0.00240302017838462) 37
(-0.0103488512685083 0.178512123690101 0.00247729263817268) 38
(-0.0105690229871177 0.179657336877137 0.000541826813316794) 38
(-0.00851896947804835 0.174059404295638 0.00397840482814268) 38
(-0.0102032545903044 0.176251341045533 0.00214430727733938) 38
(-0.0137360482416514 0.177020671253573 0.00374383980804392) 38
(-0.0141566408685347 0.173009914741144 0.00240182748366572) 38
(-0.00829711449781623 0.173164663805969 0.000320504806937108) 38
(-0.0149642084662812 0.175765189897561 0.000942475195344263) 38
(-0.00684652482407773 0.179984709878909 -0.000187272411732079) 39
(-0.003203973011067 0.176920308830641 0.000264552567942852) 39
(-0.00175841245179598 0.176735038311667 -0.00249120222149205) 39
(-0.00229582731724046 0.174224450602325 -0.00266846398981871) 39
(-0.00229951488793327 0.176353935409566 0.00271838380029659) 39
(-0.00433659340666226 0.173681140280653 0.000440663892859801) 39
(-0.00679275285076324 0.174558049849002 -0.00225968444723846) 39
(-0.00690667714211447 0.176611338042922 -0.00332329202260581) 39
(-0.00639558046756549 0.175967747803309 -0.000294076461646947) 39
(-0.00690146291112408 0.175304828465367 0.00056390986285672) 39
(-0.145679246981691 0.185868552445925 -0.000566714179534684) 40
(-0.145036982433633 0.186579992605836 -0.00367942562840981) 40
(-0.145109968962782 0.181974540977851 -0.000204158011910859) 40
(-0.147348250224245 0.185947744943467 -0.00113088037117378) 40
(-0.147516639071933 0.185051941584218 -0.00319985609704409) 40
(-0.148600863198491 0.182071195963081 -0.0024363405250544) 40
(-0.147608439770972 0.18070963687286 0.00417751729446564) 40
(-0.148754077696557 0.18011263208352 0.00141125199138018) 40
(-0.1459590243425 0.18079463744559 -0.000503951554668101) 40
(-0.13840235866429 0.183729095675904 -0.000372017207278708) 41
(-0.137853435939081 0.183820829124117 0.00318993896671337) 41
(-0.140683931180175 0.187385809463941 0.00403651853460083) 41
(-0.142502603445727 0.187123446733094 -0.00360503450164891) 41
(-0.142076288201248 0.18487869203445 -0.00279618518043756) 41
(-0.14029545530641 0.183580830564983 -0.00242646906911299) 41
(-0.138208137736684 0.180755411090333 0.00411808724340367) 41
(-0.138759612317745 0.184019076961691 0.00336673513754155) 41
(-0.142207355207212 0.184920758418129 0.00208277798105718) 41
(-0.142603956931111 0.184141121262226 0.00224624631678894) 41
(-0.1421459967177 0.180834044806316 0.000386610865657282) 41
(-0.138666815619768 0.181287613848156 0.00151795613920433) 41
(-0.144592743824057 0.183445477702387 -0.00367964709389149) 41
(-0.144696854598183 0.181773037185486 0.0030155572698907) 41
(-0.129744154979663 0.185886238559362 -0.00167499474711307) 42
(-0.13263577295679 0.183164837614805 0.00064032200494877) 42
(-0.133646068203607 0.186854110599095 -0.000825390504810977) 42
(-0.133657110269542 0.18407350040943 -0.00113878800681195) 42
(-0.131196212442254 0.184143715989952 -0.00338697888615718) 42
(-0.130737779942366 0.182586076164235 0.00312107666107482) 42
(-0.130402157618757 0.187236518569771 0.00416771373091878) 42
(-0.133401948430858 0.184212944607898 0.0015208503997082) 42
(-0.132599213116138 0.180738352977863 0.0033108044506274) 42
(-0.13390109918414 0.180033988317553 -0.00147584166013484) 42
(-0.132354661400685 0.18119565363816 0.0007098360951886) 42
(-0.122611924166405 0.183782901790715 -0.00226737695728005) 43
(-0.12570610617592 0.185753090612833 0.000927027113500171) 43
(-0.123948972581574 0.185910812746937 5.30312022930943e-05) 43
(-0.124436986432464 0.186271096772562 -0.0032959949365555) 43
(-0.126743885591725 0.182057877000598 -0.00297158459471351) 43
(-0.126493737788488 0.182494983341642 0.00285093706527356) 43
(-0.124397020549222 0.186040467688544 0.00385586053336459) 43
(-0.126616617653719 0.180660165965296 -0.00331476012332587) 43
(-0.128753343170414 0.183399736616504 0.00227241796189986) 43
(-0.128702347164196 0.181122922685097 -0.000288378960940717) 43
(-0.11469542229816 0.185607807348564 0.000771110368807264) 44
(-0.114659019663228 0.183191957665675 0.00375562692902797) 44
(-0.120442238590525 0.187444129370662 0.0030030715043264) 44
(-0.11672201687747 0.18558111131155 -0.000420357505451475) 44
(-0.118994808704126 0.186547501777304 0.00325357967820278) 44
(-0.116463636269841 0.180219232359329 0.00201462554468975) 44
(-0.115540992136984 0.18027526689982 -0.00159414039264383) 44
(-0.121311766964618 0.185925412229286 0.00134022243858185) 44
(-0.119018004761488 0.183400291927898 0.000808106517931129) 44
(-0.108132352569597 0.181571607860942 0.00255617921267377) 45
(-0.110677758706512 0.186868413281111 -0.00145538259479766) 45
(-0.111501334306189 0.184576462604138 -0.00227843437386686) 45
(-0.112510007450233 0.183170265844813 -0.00309458483933961) 45
(-0.107918997942524 0.185254968754058 0.00297101027466492) 45
(-0.110539962135903 0.185701359605607 0.00230300436970484) 45
(-0.108944033148544 0.181395484781396 -0.00104282536123987) 45
(-0.113664818137772 0.183513524721436 -0.00226800903345146) 45
(-0.11288207895066 0.18338069020146 -0.000349905969785589) 45
(-0.100452678500087 0.185489972643827 0.000591430808876077) 46
(-0.104329325149008 0.186493583553751 0.00116237556363668) 46
(-0.105789692510785 0.181928682776313 -0.00326130338740244) 46
(-0.10188350406994 0.182223534465712 -0.00185884396723868) 46
(-0.102376315790147 0.184214093033408 0.00158845333307185) 46
(-0.103948854339715 0.183807574127944 0.00208969573479972) 46
(-0.102669324464699 0.181350085366509 0.00121838483344093) 46
(-0.106347473565434 0.183905187640083 -0.00235266507898217) 46
(-0.105676727403088 0.183420565687219 0.000926328085204575) 46