/*--------------------------------*- C++ -*----------------------------------*\
| =========                 |                                                 |
| \\      /  F ield         | OpenFOAM: The Open Source CFD Toolbox           |
|  \\    /   O peration     | Version:  2406                                  |
|   \\  /    A nd           | Website:  www.openfoam.com                      |
|    \\/     M anipulation  |                                                 |
\*---------------------------------------------------------------------------*/
FoamFile
{
    version     2.0;
    format      ascii;
    arch        "LSB;label=32;scalar=64";
    class       vectorField;
    location    "0/lagrangian/dsmc";
    object      U;
}
// * * * * * * * * * * * * * * * * * * * * * * * * * * * * * * * * * * * * * //


5100
(
(1762.97374858719 327.373800995402 -99.1925466539137)
(1845.80591528369 -134.287470102059 288.686886313673)
(1879.2972364021 90.3377820787746 -712.317859220036)
(1315.62764906372 38.4327097596592 400.55019110665)
(1873.87987207986 -115.087443055352 -161.085098779617)
(1910.18636842981 383.940080477596 122.082526060817)
(1366.28778997432 379.717473826131 46.3267076417267)
(1650.72809117486 -301.96430671466 -92.1244459215044)
(1959.50312938471 -110.834710223255 151.55425414128)
(1616.69396621763 471.9874897376 18.7153824404872)
(1400.22206843354 -411.760353112578 -230.311539396197)
(2069.57108450396 -290.272429055125 -209.230958289739)
(1351.13621365054 -264.869394411234 -250.356400461981)
(1863.24505528838 -65.9976701050073 357.87637197108)
(2127.98216681432 -102.350049707537 -470.831234077704)
(2231.15495338072 -317.408555769424 301.411178795886)
(2140.1351026953 313.232134977354 -73.2012447802479)
(1473.57597229963 -417.768368296576 -30.6532111950428)
(1289.33865499629 -181.446039198028 15.9672473587376)
(1477.04858156822 -390.241092233275 -353.324203756951)
(1603.70091569494 -9.60836476838829 -340.684796666211)
(1445.78415143233 102.474965943939 -705.526738834512)
(1756.21338925257 -412.460137256107 573.153177943205)
(1616.2370417905 455.287115957322 -266.433216881828)
(1666.53600256297 75.0688549264123 298.664756616944)
(1889.30711879556 188.397579156178 -23.2922807194617)
(1617.65256257142 512.585529535706 -35.206493107371)
(1283.03226102768 -222.922217508432 -236.221872642815)
(1893.91387784589 367.58495494846 -50.6605462939882)
(1376.92892047477 -15.3318238084247 5.91615644530209)
(1910.94504742287 64.4851865244825 -98.7507963482352)
(2140.08190213614 -256.561680996429 292.105870013781)
(1713.66667308721 -92.5216594068297 392.467735235004)
(1570.65992394786 496.152107046407 74.0301677013131)
(1942.10741828588 63.7339271640079 135.193531923479)
(1106.27721351977 -75.7029844003276 326.927467692582)
(1878.11734615834 -4.38073627365315 -363.794498671139)
(1286.50729845931 238.762378825667 -73.7078922408169)
(1599.38511815681 -266.572201429355 415.281904062433)
(1514.03816272315 283.465523223546 266.461702866689)
(2010.84924182259 182.536615702478 -96.2780965422969)
(1449.14520956496 -237.504599216714 69.3370700764134)
(1972.6307204998 185.391721589447 -258.125472215839)
(1811.06711526709 -288.264940544602 -567.054641814488)
(1755.35990842328 -314.678694813452 -129.149018090004)
(1533.87906558621 -52.3671515116004 -137.127866103066)
(1833.1307858038 -41.1901591412042 182.525947245756)
(1154.59455953829 217.762534323657 375.401041046933)
(1701.02231076726 -190.782962112402 -22.6575565639452)
(1762.49076542509 -312.841224922741 -287.911676417161)
(1263.20206590572 260.119320073028 -91.3861625755823)
(1840.89895929637 -151.76560579295 -88.7346164792286)
(1868.26294125375 -390.32173889792 45.3354890826162)
(1502.06061996852 -57.9953538107963 -243.490584274617)
(1717.94075952635 -518.440567809941 -318.880967545068)
(1332.87083976438 618.848053619333 -83.2430718955397)
(1465.61550160406 130.489555048658 -96.8918839906835)
(1792.11520665491 94.1969937682815 -336.036906643625)
(1450.64238041785 -735.952193960108 -27.2942270375017)
(1642.19012671927 -258.559006065615 6.66566870087574)
(1573.06472457691 294.516316728135 -192.967372058409)
(1034.78294961114 10.5139617560156 -508.689903692036)
(1517.57762417935 -273.671636915396 126.464537024866)
(1788.30364306286 660.103443890756 431.099513792009)
(1917.5967317967 -208.443053843559 -63.0837656840219)
(1799.04784698115 40.9407230164499 328.773180764048)
(1660.09832386517 120.066535754851 -1193.07300268061)
(2243.79689203434 58.2304770433384 -194.207084322611)
(1203.06722249414 336.505118586793 -346.353352799669)
(1950.40811432351 450.206468566839 -509.092450370456)
(1421.43543955062 -36.684619952981 -397.407528470822)
(1163.27694330867 -528.451609931579 -340.181532870695)
(1435.905199823 392.906058082829 101.036863976931)
(1618.77776883356 -229.466795014792 64.3925884905591)
(1426.978830455 285.516980441757 78.9564529137207)
(1746.99629359933 -190.341236354132 344.775333766589)
(1590.27070881932 -169.326872519717 -455.64548544017)
(1831.17933589421 -364.389799805113 137.701959718969)
(2252.51104444716 13.6628181551434 -541.51297901982)
(1945.48749469063 418.251680829761 -322.821490898468)
(1414.49391159355 11.7155694231982 -124.562656953954)
(1779.09362656762 -517.69560482386 383.929383788602)
(1882.99445483515 -119.806876397665 223.597725380076)
(1979.95042432872 225.539375477263 198.876625133517)
(1986.23036878281 -121.006793914192 400.896568076416)
(2129.39707362421 122.357324488676 44.4345025220469)
(2102.41768369589 164.931451895003 393.999522766527)
(1740.4496083104 137.855831188783 36.457128780714)
(2209.51681107334 222.559980518141 266.299427682854)
(1892.37599775002 -85.7362560894062 -393.728677116118)
(1713.98326399192 -156.901671226492 89.9825612639957)
(1800.13372399932 -124.618582465715 131.741460377923)
(1706.0631640061 677.02781194984 -77.4936061690548)
(1579.46886655747 -479.84074615673 -41.5692421010292)
(1877.58157781925 140.898447114621 71.7032459097535)
(1981.89078822703 -761.708152179876 -220.21349776374)
(1439.811749483 -453.857624626298 -206.043646147225)
(2024.60570376302 239.030276150383 51.5396565228632)
(1393.90634940859 -223.676401672457 -375.620189649201)
(1416.00171133694 -21.3651027906363 213.113455926247)
(1798.06259563325 -39.1500874184309 -144.776900831599)
(1675.56618673437 35.9390399670669 -680.883903935834)
(1192.80110908004 325.477076193584 -481.555416962877)
(1669.69492567056 20.0552516690737 -138.969368946291)
(2362.74991350047 214.874588920115 -85.5309122720806)
(2014.19241163711 10.2781564910024 -291.449578481555)
(1671.92337367074 -795.594405682686 304.099020401355)
(1535.00909121659 -0.139406729385762 164.625483694874)
(1578.8906567345 -50.4338326867197 76.9128028819009)
(1855.99065911754 -86.9357460751393 307.881723732247)
(1613.15717226791 324.675508519756 329.111903537591)
(2356.17381014298 58.8890733279288 -156.3334472155)
(2036.07864814996 620.99365231195 183.830797028389)
(1443.4865972731 636.042022825499 340.217839741974)
(1561.84603130212 -347.905701048789 -192.617805416935)
(1831.66368838839 -244.631352364128 -99.4604841591706)
(1839.90298122082 25.502432231988 408.107020343477)
(1946.36545353553 0.317124466999823 132.998592546791)
(1523.64594517765 -123.346287431455 -125.515285864192)
(1391.91219601358 -72.565864397458 57.8964884086238)
(1821.80566780679 113.892972029036 -89.5913081572394)
(2086.88560638629 152.123365372999 -447.110586064891)
(1716.32065080983 -245.911238734285 -143.962006410451)
(1656.99487677807 160.771035950912 -55.2768864900585)
(1957.48060358633 45.2814418656849 282.1341331801)
(1868.53654091311 93.8375055805556 -88.628539061713)
(1480.24309339794 48.9102190264837 -166.80069485532)
(1383.96337135619 431.9188361321 -9.53766601645384)
(1867.01102393337 -85.4607154380242 -72.5743946885429)
(1743.49059717362 -1.03658821710273 -831.829414482734)
(1126.51449432865 -120.826767157062 373.34959090615)
(1860.92669531978 197.964674215175 -137.365357139263)
(1379.32175334587 -29.136937109271 -580.363397702409)
(1912.36373003724 -126.493851905712 286.694731960829)
(1294.9180228654 -587.825976244202 -144.006715284062)
(1966.201049084 60.9821734394848 -550.61041455217)
(1606.9662421566 -159.836031460733 -88.6868827798451)
(1960.42787833517 -23.2972975664088 10.3369118715248)
(1874.82939611375 265.133948414906 -432.033614095353)
(2113.92300209333 431.028615609691 122.294285554396)
(2133.03009014659 -581.85439388688 700.798845103327)
(2259.8061635948 20.4208159454863 6.61825443334846)
(1273.0091893048 232.123369535414 -47.30643031748)
(1872.5336880686 -241.996929619169 86.018063430797)
(1266.6908105237 144.539895470224 -545.027076987591)
(1623.11313090813 80.865600599804 -25.9094216236836)
(2037.38964718058 357.221655313278 397.261287760135)
(1773.61259497541 -203.629416418647 -107.499682672247)
(1213.71632791463 351.107496585021 218.771324522188)
(1632.18642880295 83.4345165953606 217.054036991478)
(1928.28087117436 344.582426291805 -97.8635712950157)
(1771.34936832068 -202.184469739568 241.064773149096)
(1176.54112794043 316.365409753829 220.006354072283)
(1669.25539407316 -230.816096785442 -554.731222872104)
(2028.85367408891 -33.7564876904464 274.494688437538)
(1455.68039262597 149.282377366921 69.4163040460711)
(1960.2365560021 36.5706266873234 -366.107260192777)
(1694.32873054004 9.9556629546364 587.711817983869)
(1484.11664258472 247.387927217898 -43.4186677609617)
(1741.33236596686 371.270859498537 -21.6096638350597)
(1384.91691703694 696.074179483955 190.324636776674)
(2222.78208881414 376.243566021279 -86.3298563910338)
(2099.41943710774 253.983610808213 109.558777960149)
(1855.79475059073 -138.62123842704 68.3537990953673)
(1743.15503398274 377.569223547633 -251.932160749614)
(1186.13681426759 139.798334216652 137.676959737911)
(2040.41003093266 -123.176737582666 232.301902475824)
(2015.06304378143 -9.17856361507387 -487.913247963811)
(1818.96419184972 169.204039296014 -179.355901290601)
(1650.26945551154 308.85186949168 21.5056041428251)
(1577.66924067349 10.931968025104 100.440160314004)
(1730.31075562801 -25.9613690278851 -284.111018731601)
(1630.49149635918 59.261436416873 -294.750391306058)
(1135.3199089588 435.002863629614 -166.949731210083)
(1924.92858862652 322.130673448088 76.2951053658161)
(1985.778310088 381.290485092599 -490.564532885212)
(1851.92916344972 105.258812192862 -149.372467609858)
(1828.63527303752 -84.8451759555719 209.100342703476)
(2023.22572273085 -49.219675088078 -93.186445907713)
(1826.36072536868 553.677784706405 -413.156695231872)
(1952.26942386297 -273.311651865813 332.449994782536)
(1802.40121813144 236.828147954948 -219.158178709702)
(1832.52353038296 556.231376030984 230.233485817191)
(1527.83289753896 131.923020006312 -193.427204680885)
(1962.50273309743 -199.442894852935 -133.875808213591)
(1386.4784532569 -152.906943672637 -341.074277571455)
(1948.25437440823 10.051854333325 134.641256886805)
(2052.0613022892 -208.208106825176 251.845216033197)
(1850.17285946342 191.783716110354 -134.268474415164)
(1458.0945180591 268.790575820116 66.3644271124817)
(1429.76680160508 -176.078428090223 107.283472321064)
(1915.3050585165 -60.3106498666025 -121.332228713639)
(1874.73316839824 285.293050149553 133.726578933143)
(1830.44128209778 -491.97787106074 -223.106859814277)
(1683.21856510404 -100.698638971064 206.423547893792)
(1952.18832550124 178.321478243218 150.500766962571)
(1963.72737223939 211.510722711927 -309.216462962939)
(1762.22402905258 -678.700114095528 323.267021187727)
(1525.34050529311 188.500632586703 -211.735377551582)
(1827.31488656011 202.869094340928 -222.941696828583)
(1098.727840463 -4.58339381196766 181.688915842203)
(2051.13679451629 188.847843737894 -14.779024507605)
(2201.57428112833 -216.06143112025 189.2325464274)
(1483.52964114678 441.587506500361 45.3473347148077)
(1793.30104882544 113.572071926098 364.518734915762)
(1878.09315604978 425.49251726798 -423.09128168895)
(1173.75194906413 -191.395020626023 476.44049734533)
(2001.5268690199 -30.1321394511568 -238.394514003132)
(1844.93339721571 -340.706822492642 -453.066242021517)
(1842.49960373011 316.426509052417 141.484766651536)
(1914.64345391947 -258.344778373435 -456.794341422895)
(1405.48178695423 271.069394500628 -397.651658774591)
(1436.52381115156 -90.5058731614716 604.239430036869)
(1731.27976616212 503.307377955923 186.709421308914)
(1262.48111256208 -421.144245371801 220.767537440972)
(2006.70968514263 242.747186276058 -20.0339806217709)
(2141.70723548188 111.863097977726 170.508252377591)
(1256.75420532991 -221.259696443328 19.2015545560511)
(1929.72287396768 143.306974991753 -31.7850558442009)
(2364.21174969279 -51.4669571207606 -212.869777171335)
(2287.25226668547 245.474120147701 293.031910310574)
(1933.14007264813 -519.320381403336 -574.467764645936)
(1754.89017855821 -362.411416722968 -36.5833135940444)
(1914.29470598845 76.4676507863347 174.197453679794)
(1897.46204192893 -20.737758353152 -86.0370937808851)
(1524.69071674962 11.4833264222639 468.701433986802)
(1400.9712345775 341.882076823494 435.07042849616)
(1760.06897326463 -412.879279985846 600.643677187137)
(1432.54752026182 299.789595410568 156.933343296107)
(1688.54180214535 -168.741582549714 -211.564686486979)
(1462.66454684699 -307.302594309496 -205.819705759697)
(1367.54699072622 -0.986729597727745 -7.86021481957221)
(1872.92642281789 -147.425140003182 242.452544754772)
(1788.11544888816 -142.072659998947 424.30842777283)
(1767.97280149566 120.270431403895 -328.78665184096)
(1206.07422367247 37.1246075525578 258.557719830894)
(1260.15061502832 -268.724090842583 16.6621380404564)
(1457.94511252225 -178.521480560432 -355.76307971666)
(1878.06163621145 -66.9240421718288 356.336558725537)
(2004.64444825187 138.240251516969 -371.541872847233)
(1496.08536243411 26.5901346376084 441.855465705946)
(2648.38949824651 88.4733084009663 -478.537323186131)
(1818.5528395437 180.277146803092 16.7462447119085)
(906.464084126804 -32.1699111338578 174.489681968246)
(1310.1519558775 329.136375425635 67.4453048749725)
(1716.01802208805 -358.170070581162 148.518523345266)
(2017.67554762517 447.389024221288 773.223298775166)
(1084.30761367437 -269.920285963962 559.465828138228)
(1746.28465044348 137.594603831048 34.3493811737685)
(1345.91364515706 -132.760521460162 -46.1373020974214)
(1418.00718589341 340.040454040071 -554.841128395287)
(1274.7545288279 -119.811902694113 -49.4629186348077)
(2057.66106188727 251.632958212643 -110.40055193043)
(1695.2985815174 211.334162697224 56.3820539656431)
(1892.18958661804 25.7165543875374 -62.4830537520869)
(1711.58503084068 470.988854672109 -53.985531347593)
(1893.98523954261 8.7222766317047 -123.328167765883)
(1797.72821254697 57.8445938769668 545.712237105008)
(993.212280962016 -218.229882493211 -610.774650508329)
(1418.07424200053 222.135101795191 -279.065236929655)
(1957.53713868569 -934.525610301105 409.31532048829)
(1085.54774943819 -30.5562268143798 309.739886727403)
(2043.97565117275 -51.186689355001 14.9489083420103)
(1965.76076250094 157.380471384215 -190.763163464364)
(2166.48551862385 -239.741008047626 -156.210700524889)
(2333.69957664031 -1.32509022166933 295.811231762619)
(1882.48068292929 141.670326060956 585.79970431734)
(1693.56902076965 484.219044687588 96.8900587012366)
(2641.3973127349 428.386125371036 199.398051419229)
(1982.89125229359 240.003228526861 -135.895683079801)
(1576.56575089609 -25.2408233302921 154.614245632609)
(1381.4617102113 -647.800990512587 3.13169068475843)
(1781.13156588647 62.488329872906 6.52379249653784)
(1727.81168641666 -409.576252563335 386.38676310224)
(1627.96756726202 -241.554766169365 442.321121668624)
(1842.71656230989 205.610994760669 205.280892136674)
(1598.36248174154 -47.1559196541919 -406.140825594007)
(1399.4155153298 389.71290536 145.875820097016)
(1760.540766366 292.898921963573 -12.5559800782138)
(1722.41840698346 115.659706963133 -197.366932712738)
(1406.87022782766 198.80226350808 216.523107978022)
(1684.40045386454 362.178521214294 231.320125977261)
(2223.29832440634 -118.412641979248 227.305981355901)
(1934.76923311984 17.9647838059375 320.248515402361)
(1619.3076718323 -104.793617267534 -94.0856720087702)
(2235.36338962209 -120.382997521341 -90.9109287342809)
(1468.78798971831 402.116855218686 228.3579378107)
(1698.43577716872 74.6396227057578 310.743580593023)
(1850.04517379466 -184.454770607011 439.701001785187)
(1698.50894382192 243.752676867371 119.03459359581)
(1497.91951056606 525.464760943868 121.472206853205)
(1748.72569324588 188.827283729405 399.373146717046)
(1714.83095132054 557.115936259867 -421.369167625206)
(1999.94048257687 268.73437514277 -459.141794481328)
(1898.54470579442 -133.573828505707 383.473255409728)
(958.810541904636 976.5080442794 794.096830313474)
(2037.52970257906 119.536254911037 -138.531719398641)
(1359.73153213472 -41.7016554853479 246.570030051846)
(1831.95724624393 -454.965191882088 124.927719897497)
(2063.23326305103 371.024228608799 -66.180260880157)
(1419.80475680541 493.798424684261 -254.158443730629)
(1906.12127807474 33.2505224727127 325.340741633312)
(1678.35272348213 -67.6375049704217 -378.266660914492)
(1358.38578875237 319.457555410627 -471.432291675033)
(2455.03914539612 115.747276932388 -152.885318075664)
(1491.86469886395 80.0578027888232 -279.681901232464)
(1941.2247677195 136.647904189852 -388.841997764643)
(1678.9201129395 -535.414832164715 0.999885740536166)
(1682.4706691058 236.209256967246 395.234169788154)
(2204.87995875002 -276.059518501167 -79.8082488964137)
(1340.55044981613 -247.361904833384 -194.759601478034)
(2098.95892308553 202.871116501386 390.058645099813)
(1707.43876370999 -218.974064151256 -467.746325345846)
(1197.03238441074 174.618720633827 -188.459614898029)
(1473.88109502535 368.350194165874 187.454708095098)
(1368.17696378132 -139.769286873273 108.957813889869)
(2058.09051225636 25.7944924841846 -27.6984962166987)
(1698.22584745534 320.571323850608 360.421646377826)
(1601.30025365845 -113.150917630786 -118.962871024808)
(1766.55467360601 243.926568229962 43.4953009612781)
(1910.93209736106 -628.508068575473 465.769951066726)
(1956.52908754813 -287.593590976984 240.623943462782)
(1194.52135934811 -279.590564989062 -298.941206103621)
(1551.04644612196 -219.806480192101 -304.114808613252)
(1658.43374615071 567.297969401548 149.379372974993)
(1777.73245341036 141.512843226521 -79.0508875776261)
(2266.08329289454 270.585723776818 -291.763421218839)
(1264.91788932705 324.034413904054 290.789824213249)
(1677.84765308463 -177.247583536663 265.264648404692)
(1120.50052191956 114.867797522144 -181.202361271305)
(1556.0240882106 12.4117103246502 193.931223966209)
(1991.46556552589 -200.902838877481 81.2024589418496)
(2286.45069597033 159.337862283212 -432.969762667252)
(1449.42383074599 -49.8065118730076 -242.696083895343)
(1535.08707943664 -631.805099225699 84.6595375659511)
(1785.65216996076 -522.849358600402 -315.5662091001)
(1664.85775177736 -145.465565658452 -550.664902993131)
(2082.2139407958 2.57763340521349 54.453709773766)
(1905.23716218038 -30.7547458440773 -431.724611661022)
(1375.99779186311 -16.1977364116595 -29.4378495936502)
(2002.78484677951 -397.696982489284 -38.0096504129281)
(1832.4585365133 231.853984664873 392.583509022924)
(1649.21758061444 -144.535621439077 -540.567015339452)
(1882.46544775084 175.22550734038 -247.779852527825)
(1208.4811504086 -231.243064619444 350.169988510051)
(1660.11632660725 234.199037783976 -414.928723318705)
(1826.9440320408 165.343416241894 68.6695919875423)
(1782.24020562057 20.680540201844 -2.73517948909026)
(2009.86705565855 -108.310385462981 154.809818647146)
(1798.55210786621 -84.6785397252675 184.751960342781)
(1764.66753636513 -213.049336973857 -101.275930070183)
(1292.03779599835 209.555005441759 -198.582307805024)
(2236.24926506524 175.81787306977 421.401212400169)
(1667.68860654683 142.685992304033 641.196006915453)
(1112.1654817 -447.272332527142 -25.788373917365)
(1013.25840562125 96.2516749992793 110.291863453522)
(1651.47625408098 11.011081930859 156.325828674646)
(1724.55059926547 -21.155955259428 -232.606417509243)
(1884.2896317445 -73.6145401878472 365.109632620285)
(2054.01705190182 104.92904367993 -194.118135102778)
(1775.66746464098 -43.4426822288012 -162.409022452767)
(1446.75767410205 -56.1864458435571 -124.69292562814)
(1895.27259098398 148.478509574298 65.1130781712831)
(1700.67075196173 33.0596866709193 420.521674185272)
(2031.07584313647 10.43932355163 97.3654701863212)
(2057.47037166588 47.4558548019046 -258.245228409276)
(1179.17355732749 -168.050353593453 69.2005510875546)
(1548.89731264667 439.46152354127 -143.907073007817)
(2103.54590978132 -317.314899228851 149.412947707805)
(1833.96188181798 349.96675470183 -160.164674879546)
(1750.66624640235 579.118082136943 315.160071188106)
(1555.43131129406 -638.780471737966 158.073134838684)
(1719.90557172986 -435.48732794618 -404.912805064359)
(1593.86290435389 -251.543153721138 -249.784386135054)
(2191.1524769917 -99.7939198422657 158.520179108024)
(1836.60090322622 28.2990168751392 -7.82161000629517)
(1616.01874417252 -186.203110502471 497.262432725772)
(1950.16780464496 -267.328773288124 -72.4166927754786)
(2152.72393700673 -570.238612934594 -148.48708755273)
(1909.88218413254 253.40194274331 -127.526045348193)
(1290.82517353563 97.5866324048839 292.415749570914)
(1410.04139084557 206.960401977924 576.587032921471)
(1579.36886481573 252.870974552399 21.7294108520412)
(1542.33211057009 404.957606656832 146.365551591156)
(1768.36672878683 179.917024549749 -354.241608168831)
(1839.40059540331 -208.537383383924 423.16830021909)
(1676.56085129797 156.410157722001 143.721995321779)
(1922.1982312868 -116.563883615121 283.70744491242)
(2451.35810437409 329.909136773538 495.293332584513)
(2351.72248115174 232.025888243491 -377.866626600267)
(1440.66512487036 56.3559949173568 -140.75929251667)
(1605.94020388989 434.01223622992 -28.2466813576878)
(1896.86105299593 -30.8474899980193 -79.7021659844459)
(1694.00758274469 326.987782772813 -465.969936883638)
(1993.63827690123 -177.996878966118 -283.988887736942)
(1975.05726092206 334.161335969212 -42.4073516859421)
(1439.97048787816 379.742174988462 -247.511125351128)
(1502.09253494409 654.810210598933 141.781288267601)
(1942.28835914697 -229.060437859822 -193.030081630536)
(1721.35313892198 -146.953209895981 -288.411436322841)
(2397.38634284079 120.9732666821 268.024709938776)
(1792.54577783941 314.886882431016 59.7656279131077)
(1123.05077448356 188.757170529741 -321.046702319016)
(1980.63667722155 65.1290580226153 -254.997020564236)
(2358.00362088593 449.491418329884 -137.380794856826)
(1445.94405733356 203.020720624059 -283.479476148039)
(1675.91473971903 806.662336642716 -316.198199580605)
(2281.12636819849 161.777571696311 -136.111128290019)
(1941.48498053457 219.798641513651 77.1535736128062)
(1815.65582272207 347.654150806218 -144.168693574583)
(1694.80260195282 338.558758412503 -148.659943136365)
(2006.71420170258 542.03013585399 -118.834295862988)
(2008.83691108685 245.994713911436 5.25629172140305)
(1857.36561804013 129.275213701718 -55.6322941855218)
(1035.9733109852 -91.5399411111541 80.0101873638336)
(1934.66075383833 84.5768103155052 195.147078211798)
(1612.34767946344 -71.5743479369513 259.812327081412)
(1690.17609024558 220.42499118172 314.66770684752)
(1847.2362799094 21.0598365959009 604.987507471771)
(1857.96203635496 478.133983589445 -629.011813760768)
(1820.61715996756 -151.943987485003 -239.516494771889)
(1405.86915644464 -10.7235957678977 -143.498658967788)
(1947.85654486074 -129.484037389113 -165.775537734942)
(1462.60447854091 179.364139372003 176.650010801029)
(1982.3093825473 184.228740419228 7.8579234535941)
(1633.72606531256 -16.3399958070679 -357.273498590422)
(1689.50392759787 -421.486482989991 57.8336586689044)
(1899.20669338156 164.053034674876 107.647741349229)
(1080.48384089811 238.679231883036 90.7626127615166)
(1843.92046874542 -573.342202166483 243.993365392728)
(1594.1493890898 -153.866909703541 63.870610635928)
(1492.85121940755 -548.239768149236 -306.718417520621)
(1180.49656802016 -543.743788699062 -362.045659523571)
(1841.95052365341 -294.077051617939 324.088777483949)
(1666.5923095708 -526.772816146588 11.683903571813)
(1523.49339746058 -524.712698602481 113.908664184984)
(1791.69334820837 147.285851226575 -419.195581040023)
(1473.40119557658 162.824820577818 -348.879361832458)
(1797.72066313837 -285.128063601713 -182.436921170261)
(1823.74904214973 -203.028370510704 -208.105393151901)
(2024.13476254821 26.0620576717335 -566.238551479291)
(1644.97376330269 0.449044017633736 324.840100285363)
(2377.58709729777 172.571498959614 -66.7761531191105)
(1770.51063923514 71.2737799430098 -412.097929265401)
(1536.1139054692 60.3054190525586 232.952097306307)
(2517.77484856266 76.3656962614169 -19.2480483584897)
(1354.33534873547 -119.252094957936 -434.309671793904)
(2007.60433201302 -231.767042625549 -400.460920309741)
(1825.46692641545 924.498396421427 -143.523592380798)
(2005.04821163071 -116.110148008219 160.863012344518)
(1719.3291790943 -77.712235373956 -74.5285914057682)
(1802.45750839778 420.844157575278 5.44379767824715)
(1660.74818865913 -45.5228758092675 -163.531896339844)
(1636.32251380172 142.170446910879 -388.067700471927)
(1695.29429547416 -66.3594510810253 129.72246750555)
(2059.00785790014 11.2861105636498 601.892111178974)
(2046.79798876774 88.9942049778544 387.552242054462)
(1391.36610450763 93.5281021214707 522.830555096105)
(1992.22283813266 -244.185446546821 -202.097816358372)
(1649.04077615186 84.715603442331 400.195715096223)
(1772.04462556787 325.972417670261 484.738401579246)
(2032.73932904706 -284.670651136927 -486.33185300287)
(1287.67623379092 -57.8036528741617 48.4827123261378)
(1698.24485099049 -23.613943741946 302.713164752019)
(1747.03062901784 48.6873237987828 -452.686172785517)
(1806.79576060398 154.637827732265 -232.172669226913)
(1397.47848947902 -40.7903375448703 -77.414921453251)
(1324.18659714733 -132.135677812859 15.4398496817902)
(2115.40383187794 694.085431859946 -1.1158714726025)
(1938.14685059727 28.3134359786514 458.796692296195)
(2309.15017806429 -318.17099353768 118.454621529635)
(1756.8395228229 -20.9024632839637 195.290712364463)
(1598.42736304688 103.399576068834 -390.308011162057)
(1692.01502374409 -517.886677943826 -59.0424986480394)
(2313.32677980882 -864.643663201928 -150.664923059205)
(1363.84583781504 181.072692100478 -308.64564729404)
(1874.34263617355 -167.041290528598 -94.0810187221564)
(1022.87606424143 120.976396551671 144.768242296529)
(1269.72674591186 280.775727037636 -270.712440402532)
(1969.18604268535 -161.870020719195 -273.353362380796)
(2019.63877079512 117.028801168809 60.8690711692421)
(1648.56884088338 5.687439501368 -566.207176620735)
(1813.12853851559 -221.726864230207 -412.573742532701)
(1471.32608481052 -10.7404312731223 22.2784918332468)
(1726.72129872547 -211.834371699279 60.2687453702339)
(1554.21045770833 -5.03101050204892 154.119039119072)
(1887.18005550717 66.9088663239225 95.1525615618627)
(1753.74782424863 175.549946009892 238.986345960633)
(2237.69616847602 -462.056955488589 -29.9955761396775)
(1104.41600866685 -57.8272083141011 446.279541641183)
(2428.48369817775 145.59282256244 -285.663606762154)
(1757.82970050466 139.848643701995 212.757258344918)
(1376.05899017274 -282.585536750386 53.4380016670525)
(1785.24421461981 -276.631834715768 -483.976372162617)
(1512.46120770638 -385.711412481836 -247.653081582287)
(1611.61247399693 -223.56308869983 -91.4356025978079)
(1831.79046832622 -244.347279705919 -150.919805258184)
(2088.1168712785 202.528378844526 79.6591299626156)
(1667.98026654401 -214.229724247825 92.3784488226025)
(1471.79491454763 286.514499129078 -120.534989206009)
(1806.8187208963 85.3617914226307 -128.394973401945)
(1994.69886575862 138.47348107466 605.563698919179)
(1625.76767735779 -188.756252029523 -274.88292938058)
(1927.09888229287 233.620748700417 -168.475542400606)
(1784.46947849515 -957.213827339465 -229.211840425523)
(1624.80102996923 226.813652699336 -292.119195051863)
(2268.59048967147 127.196096817223 796.145640871778)
(1936.81226259821 -90.4603188204164 169.050023481157)
(1801.09657753598 -218.347058351119 3.26506845670278)
(1479.17415370074 160.612713653236 -855.062043339412)
(1830.68844024971 649.098300904808 125.397713917192)
(1706.49428419482 -583.107896971501 213.993178357918)
(1711.37158532696 -369.749135423038 61.5582542536256)
(1418.91094662992 3.97165600643345 -194.924873537788)
(1909.22039824232 126.134089179766 221.280711143078)
(1553.83558767392 -9.10411998349449 462.67932215227)
(1734.94740412525 799.742244830046 -23.0114086102858)
(1702.35152747786 -805.629211460159 166.331400805538)
(2034.83775335182 266.692076216606 409.408290306373)
(1758.18846184543 -11.0804997056282 246.904585269758)
(1659.01992381207 345.018882363712 -44.5494789841647)
(2024.88158068637 -271.337420588864 90.9581646909489)
(1565.8269544598 337.41620351139 -97.762244860393)
(1475.39561764909 -225.747080459415 -49.4602149683782)
(2144.44345801518 -417.487679612888 720.563945463409)
(1999.95472398086 -40.1420812917098 -339.890829595948)
(1805.17922757654 8.63773300183762 94.9421002402779)
(1481.62308332517 -148.919321740662 132.803201235969)
(1847.87339723801 212.725551686126 242.008503097931)
(1667.48223124039 106.165038330718 -402.093330530919)
(1808.47956463617 57.6041300685856 122.635745283597)
(2117.2475084958 -129.121943045848 347.092944085672)
(1703.65667472799 283.029217638659 284.566544625459)
(1491.04136375733 114.107281276689 112.328340727785)
(2120.79616422866 -185.351231202503 -887.043498542401)
(1977.8842675971 97.0652259362222 -222.870924327063)
(1774.79669699617 215.00016218615 -187.594999101536)
(1499.26043883723 257.029831523634 -147.545632379893)
(1639.14062615054 235.739358345946 -453.837422389981)
(1801.40547497412 105.875340779689 -196.859333847058)
(1046.58847386284 87.7965936057871 164.219610898415)
(1645.8000380144 339.595226665888 -54.4930818343135)
(1879.32657831184 -67.6811175514608 -33.3633581559627)
(2069.62455845158 -547.987024023351 201.418028715181)