/*--------------------------------*- C++ -*----------------------------------*\
| =========                 |                                                 |
| \\      /  F ield         | OpenFOAM: The Open Source CFD Toolbox           |
|  \\    /   O peration     | Version:  2406                                  |
|   \\  /    A nd           | Website:  www.openfoam.com                      |
|    \\/     M anipulation  |                                                 |
\*---------------------------------------------------------------------------*/
FoamFile
{
    version     2.0;
    format      ascii;
    arch        "LSB;label=32;scalar=64";
    class       scalarField;
    location    "0/lagrangian/dsmc";
    object      Ei;
}
// * * * * * * * * * * * * * * * * * * * * * * * * * * * * * * * * * * * * * //


64098
(
2.28642015670353e-21
3.43902169201158e-21
6.29713208075107e-21
3.81382570822073e-21
3.30049332558577e-22
7.54431884990075e-21
1.60688907902224e-22
7.60695249655895e-21
1.38016967064521e-21
7.57366167373887e-21
9.78333826616986e-22
3.39274592498241e-21
8.75264645199879e-21
1.55205143958312e-21
2.97614390680541e-22
1.09605043496908e-20
2.04436695656135e-21
1.44746477379399e-21
1.13450955693596e-20
3.15540117056591e-21
1.04158764450839e-20
1.09484673414928e-21
4.35557065459327e-22
2.03262665837269e-21
4.27689317551216e-21
4.59927861592258e-22
1.84458448449706e-22
2.28937183662633e-22
2.78082367868372e-21
6.07342195998393e-22
2.96418180775166e-21
7.45160796414684e-22
8.36336786598427e-21
3.87505557253934e-22
4.83181769779873e-21
5.80666498503468e-22
3.81639698752643e-21
6.81580119866598e-21
1.71989131206076e-21
1.99352867431563e-22
4.5573961112082e-22
5.09392325087305e-21
6.19626106811189e-21
2.00738865022067e-21
1.25425708980979e-20
1.06915487990387e-21
6.82620663940705e-22
4.95969549668525e-22
3.15995869186462e-21
6.84904209429791e-21
9.32781570091149e-22
1.32384209580131e-21
9.06263170520081e-21
3.49740695941917e-21
1.31641816577509e-21
2.88610579322182e-22
5.19802967605335e-21
2.28465506968774e-21
8.56169829047294e-21
4.55617353722457e-21
1.33772211964802e-20
2.74820270205993e-21
1.89482380204777e-21
4.02549528607788e-21
5.13096155862417e-21
6.03848993813056e-21
6.77541204798277e-21
2.73297736099325e-21
2.1965427972758e-21
2.04514060279687e-23
1.95675893878613e-21
2.41303346343367e-21
1.11384338485303e-20
2.84500445640051e-21
2.49061836958209e-21
5.51795117065271e-21
8.7390539683125e-21
1.36894520662059e-22
3.95487024054663e-22
6.66470485826559e-21
1.0718509041079e-21
1.50603040605426e-21
1.3603334956551e-21
3.34182850476897e-21
4.55143514396438e-21
2.92319189803028e-21
6.54734405067923e-21
2.1363100190328e-21
5.09969360675481e-21
3.9391234628065e-21
3.52122900061431e-21
1.59342284597933e-21
2.32276113947673e-21
5.22827207716108e-21
2.32271929071534e-21
8.85023686333216e-22
7.21067274199435e-21
4.16235875595053e-22
1.90536934564926e-21
2.08620494335632e-20
8.57799623510757e-21
7.23414800371733e-22
3.93225736864877e-21
5.10410863835283e-22
8.73815836508572e-22
1.26581397323873e-21
3.70574675530348e-21
2.55804235347899e-21
3.4945360074263e-21
7.95153788996755e-21
4.15652562712989e-21
7.40154898624685e-21
1.31595555135568e-20
5.46534252893483e-21
5.9956363339608e-21
1.59007910211209e-21
7.93724457189473e-21
1.08816653436665e-20
1.14348785648615e-21
6.64537971020172e-21
7.73595710642019e-21
4.41204977698856e-22
5.89235281384367e-21
2.78126255720131e-21
1.68865266445539e-22
6.10659158579437e-21
7.25087586174897e-21
3.41701307312964e-21
2.04040560771946e-21
3.66201113302854e-21
6.80982092299292e-21
6.75239435676067e-22
1.62938081805721e-23
1.11708674181111e-20
5.87757925664382e-21
4.50723963504653e-21
1.06924466552041e-20
4.86134115520644e-21
1.14349705412762e-20
1.7866740453301e-21
1.22496567241944e-21
1.21094423167733e-22
2.78489541955786e-22
5.49672714730261e-21
1.11401734983033e-20
8.97481297597402e-22
2.36035232888536e-21
5.13043136411827e-21
1.27819542217257e-21
1.89087923723124e-21
2.2431447102224e-21
1.20871406981242e-22
1.20881137444727e-20
8.98208856830584e-22
1.85959472832805e-22
7.69438140203614e-22
4.99447509221295e-22
2.97231973648769e-21
1.17584168065243e-21
7.37814899164659e-21
1.12490531695575e-21
3.34615207268953e-21
1.86357516168307e-21
1.7831032117732e-21
4.78364516090187e-21
1.68189896663009e-21
2.27794972162654e-21
9.52243489861299e-21
8.98975413665426e-21
2.00697447604425e-21
1.86736598023265e-20
2.56691644189863e-21
1.37378185190676e-20
3.05948003604762e-21
1.66630415623558e-21
1.04762056557505e-21
2.89765664914413e-21
3.77042423998841e-22
4.27737939008049e-21
4.55174084962145e-22
1.28481710055848e-21
1.01668200079449e-21
2.37255968035093e-21
2.53945325652117e-22
5.45940772764337e-21
1.31975908501904e-21
3.63659056625502e-21
5.87996260053272e-21
3.29417132810838e-21
1.41279993219275e-21
3.58010100823472e-21
8.50301330657271e-22
8.74445469976143e-21
3.37905436994608e-21
4.10085906752286e-22
8.30031647855821e-22
2.31201597757891e-20
1.08993953909649e-20
6.05183706912964e-21
1.33027218759655e-21
7.14372355280944e-21
7.42124516406137e-21
6.81740250334358e-21
4.26827141736745e-21
2.55326668499893e-21
7.76520398140274e-22
3.54194164975935e-21
3.43975895108929e-21
9.16303896160198e-21
6.36154213882635e-21
9.03884202587576e-22
2.54145592708024e-21
2.60423285243721e-21
3.07375321894946e-21
1.01341072583481e-21
4.9088137108304e-21
2.27629581934407e-22
5.03886400083101e-21
3.26310078196107e-21
1.13041713098876e-21
1.22529756525928e-21
9.71516723513e-22
7.49971371888166e-21
1.74666495082605e-21
6.77428301871687e-21
5.84422933127228e-21
1.70420309598456e-22
5.75381560638417e-21
6.85740923717439e-21
1.80763998150002e-21
5.45440773436988e-21
1.10196080183769e-21
1.16062492469428e-20
3.0434617617814e-22
2.40810115662208e-21
3.78899370687341e-22
8.37372540494754e-21
4.53900841953207e-21
5.9670188586502e-22
1.475377676789e-21
7.39581891808852e-22
4.27135996279871e-21
2.39011107034596e-22
1.06929816683383e-20
6.11776637970434e-21
4.18536830435863e-21
7.45927486406782e-21
3.21736217798844e-21
1.66400781052916e-21
7.2572907315188e-21
1.42132229330738e-21
1.279507326229e-20
1.33910561533614e-20
1.2758576261131e-20
4.10418503770142e-22
2.71232868793322e-21
1.58533963416053e-21
2.15981736993923e-21
1.14102045366828e-21
1.2016285332586e-21
8.0135532062415e-21
1.14560655655797e-21
1.17834402375457e-22
7.8562583861925e-21
1.09592483516324e-21
2.55887289821192e-21
6.64950958240062e-21
9.31608997844928e-23
2.65166591799469e-21
1.94858497444385e-23
1.46531803658999e-21
6.02483235492877e-21
3.23252920676993e-21
2.17460512230188e-21
9.52495683886184e-22
5.21825972556364e-21
6.5985303125326e-21
5.66998152575842e-22
3.20222036750487e-22
4.79960850179306e-21
8.12932403324048e-21
6.16673934695271e-21
2.73721095580052e-21
9.6606400786734e-22
6.89229658080447e-21
1.67230843462001e-20
4.19740404938129e-21
2.56906293588424e-22
6.93177242627556e-21
3.29296379956259e-22
2.94481568296075e-21
6.36150031684603e-22
2.21612173753337e-21
2.24445370963444e-21
2.35699765994452e-21
3.08772201206434e-23
7.11677405957242e-21
1.65290788043345e-21
5.11661483240913e-21
5.01095436670192e-21
5.96029731874184e-23
8.29646584271193e-22
9.86930101803277e-22
6.66170587763386e-21
1.36155665572011e-21
4.13792921035106e-21
7.86677314667994e-21
1.31272357833022e-20
7.17141126719416e-21
6.5424509733513e-22
3.56769997256009e-21
6.84150937055245e-21
1.33645606370542e-21
5.93012315894367e-21
1.43572573610648e-21
5.99568341101908e-22
2.86891415774939e-22
5.41580491684084e-21
2.65800698663057e-21
4.21971211685778e-21
8.77127477023133e-22
7.04016079753665e-21
1.34083016033731e-21
1.13303710754845e-21
5.60371079766485e-21
7.55483863531034e-21
3.48678021917417e-21
1.65147635451919e-21
8.12902690324055e-22
5.96993982652219e-21
2.07212463537899e-21
8.86573093080086e-21
9.07867647284281e-21
1.22877251606791e-21
9.36546816962323e-21
4.34355443993051e-21
2.44701800590879e-21
8.90381428177276e-21
1.43866529473074e-20
7.57364622215136e-21
7.89152388425721e-22
2.4278795285248e-21
1.01057263166661e-20
6.54784826691337e-22
2.48022155228928e-21
3.15564200168768e-21
3.98881373677161e-21
2.44189860516037e-22
1.09920070680742e-20
9.70680941727494e-22
1.98386068911405e-21
5.9665639615516e-21
9.17910762962923e-21
4.33830150282768e-22
3.03926965179423e-21
4.36156402340534e-21
3.04057685151836e-22
2.93022014873165e-22
5.15864708818706e-22
1.06276607772279e-22
2.70963377157425e-21
6.75940033327368e-21
7.00232967701012e-22
1.32601023277039e-21
7.65622378588653e-21
1.33632952023331e-21
6.14454220156069e-21
5.95279993246778e-21
3.14257992912542e-21
4.60278317860792e-21
6.79664963763528e-21
1.2910177753623e-20
5.29685543572809e-21
1.03058474682528e-21
2.41263557891357e-21
9.20243985725353e-22
3.73207543274833e-21
2.4558070708136e-21
3.20261639377204e-21
1.23525298047317e-21
2.0738355506182e-21
2.35747609912408e-21
9.69597035996613e-22
1.37595480986096e-21
1.50705123319753e-20
4.89415499163638e-21
7.59520485403934e-21
6.55869418929145e-21
6.68293019816688e-21
6.59129735525943e-21
1.56507665086518e-21
3.32938372623866e-21
9.46235646859795e-22
4.24483152235665e-21
3.97241194648607e-21
2.2331528739062e-21
4.71812839987589e-21
6.45811192501726e-21
3.24555294749285e-21
1.06567790673943e-20
6.20358753328377e-22
7.31254146686431e-22
5.9699398699576e-21
3.92775894896266e-21
2.77665235484086e-21
3.45782778092683e-22
1.10213633605996e-20
1.23945773447917e-20
7.64990415236026e-22
6.01599963963264e-21
1.82034939508086e-21
6.47199877640046e-23
8.07350693458207e-22
7.3275266202033e-21
8.12362793031305e-22
8.25402432336629e-22
4.44314215552312e-21
5.34844566419694e-22
5.87294001640879e-22
2.26731255552533e-23
4.12085379164189e-21
8.00050997855463e-21
1.11456005596017e-21
6.94704783860907e-21
4.6678349095748e-21
1.34545355020315e-21
1.8326980556372e-21
4.07820191032301e-22
2.34196437039217e-24
3.03167449053513e-21
8.73280557038758e-23
6.27905664698262e-21
6.19428997372832e-22
1.57054122163553e-21
2.64654864648199e-21
1.38602281891337e-20
3.06249638443705e-21
5.57843697247235e-21
2.72536679760362e-21
9.11313780276575e-21
4.67768328615902e-21
5.48074139887053e-21
1.21274755926082e-22
2.91461469183378e-21
3.14793561780748e-21
1.69604612942769e-21
1.91237605058244e-21
2.62897877602251e-21
2.80493387301064e-21
4.61742863629353e-22
1.35573072410764e-21
5.88726215371054e-22
8.59331787481217e-21
2.03162392752462e-21
4.41672652998979e-21
4.72100247783242e-21
2.5831231156351e-21
7.8512083072841e-21
4.14310017510431e-21
1.04189467284883e-21
8.28950532061048e-21
2.08793287236364e-22
3.94124825627227e-21
1.94089681631896e-21
9.87076205764512e-22
1.06900527963756e-21
2.87648770916228e-21
2.44058346527261e-21
8.74648922546596e-22
1.75472011598407e-23
3.48258875575149e-21
6.17874942076305e-21
2.0293868386975e-21
5.47912562979584e-21
2.25215925127592e-21
7.14773527246288e-21
3.27339371663816e-22
5.86939175558632e-21
4.890540852912e-22
4.30139066412818e-22
6.07487329838505e-23
9.05968265613974e-21
4.56087290556328e-22
9.86421159323547e-22
2.28644457477641e-21
1.18399747243957e-20
7.37785224355865e-23
1.74460889855767e-21
3.13759321261068e-21
3.20949908853572e-21
1.24101902115822e-21
3.0521045349233e-21
8.94450243057146e-22
3.21091312761054e-21
7.89482760022632e-22
1.31172501573672e-21
1.63757905435428e-21
2.23686528550844e-21
6.91464054861576e-21
1.13489206813283e-21
5.7773999520662e-21
1.84326858352786e-21
1.394872921614e-21
1.15314747143909e-20
1.012697081632e-21
4.44563276726183e-22
1.68142854249511e-22
4.89980697309859e-21
2.84121816111547e-21
1.22502543835802e-20
6.62281794922686e-22
7.88293031825807e-23
1.87487472324192e-20
9.3164361188731e-21
3.91356853150033e-23
2.01718844595762e-21
8.11927671361438e-22
3.97638500888846e-21
1.43944665120035e-21
6.68877588236862e-22
1.80145178835736e-21
4.28575332526889e-22
3.93912401970274e-21
1.37910109035462e-21
2.69010612194763e-21
7.17940315100067e-21
3.53624840529718e-21
7.81449867849724e-21
2.20237954330789e-21
2.10281454519888e-22
2.91657496231193e-21
3.47457821501748e-22
1.154543329374e-21
2.10252219690758e-21
1.8196438982978e-21
4.8755807694211e-21
3.18540446015512e-22
1.14600160817782e-21
4.31539988028038e-21
1.01359368979376e-20
2.0408740918931e-21
3.66577442087671e-21
1.89254186453263e-21
4.35028603755774e-21
8.64658375090675e-21
2.558398354485e-21
3.0272897704389e-21
1.1183014577979e-20
6.44710617833087e-22
6.86335671254739e-21
1.28808579805832e-22
3.76519247950976e-21
5.60868475847079e-21
8.36236137340943e-24
2.51032086741329e-21
4.78477130911452e-21
7.89367168113138e-21
7.44692372251385e-21
8.60103305248155e-22
9.9631114110958e-22
3.21752087489589e-21
1.04016894881301e-20
3.11556514146234e-21
8.5779640485922e-22
1.12885432088133e-21
1.78009667795675e-21
3.68757613124457e-21
4.22632614822593e-22
1.60183576523016e-22
7.59232313845389e-21
6.98647831640093e-21
6.32450638109628e-21
1.59785019669247e-21
5.10456395132234e-21
1.54681381286832e-21
9.32482131725865e-21
1.34570902862673e-21
5.04878579682538e-21
5.5572439195044e-21
3.90371415102878e-21
5.43325993086464e-22
3.11606524415544e-21
3.47686907211257e-21
7.17733232592632e-21
2.60404175128172e-21
1.49103450365765e-20
1.71593764054174e-21
2.73632861953507e-21
7.70643999035752e-22
1.59540661920444e-21
8.42307233267219e-21
9.55397341794019e-22
4.73888032409877e-22
1.74858759502712e-21
1.0481828785937e-21
6.90856595041599e-21
6.72058637050659e-21
4.96813779676601e-22
3.27991232218948e-21
6.08820273133158e-21
4.01463583872903e-21
2.77506391579748e-21
3.82929676267884e-21
3.35075163976105e-21
1.63206070462056e-21
4.10666629024408e-21
4.40349677458581e-21
4.4345329069653e-22
4.73626817837229e-21
9.27767497348545e-22
1.39150548721085e-21
3.1554648386811e-21
4.12470448145276e-21
2.33052297190322e-21
6.58258125883527e-21
1.23304752258725e-21
6.85109963208474e-22
9.16370715857166e-25
5.0052883788892e-21
7.60107449056658e-22
6.96312366392954e-21
4.87746805062406e-21
4.11150426648506e-21
7.19414152990106e-21
5.38909062638376e-21
5.93997892257294e-22
4.43502876215631e-21
1.7422966309739e-21
6.57503429388269e-21
1.26153495085416e-20
4.23061371014781e-22
7.61836819521978e-21
4.34619575968196e-21
8.84697730315047e-21
5.82617772899706e-21
3.23692071740225e-21
2.49613224883678e-20
5.80121014855449e-21
8.85693918817813e-21
2.04308403056005e-22
3.98215184324047e-21
1.94811388446269e-21
5.14451323391931e-21
1.70829408372831e-22
2.59142089892777e-21
1.379001575383e-20
4.05266588460797e-22
1.62583187501314e-21
8.21839237898838e-22
3.58281306180001e-21
3.6863855424995e-22
1.01144236762173e-21
5.36604915088922e-21
8.04404357750124e-21
3.94135261648733e-21
4.35277277491258e-21
3.34332191764073e-21
1.35362483362403e-20
1.90306943995764e-21
1.50553131592921e-21
3.45067672075543e-21
9.39353914393258e-22
1.76291663442334e-20
6.40407767865993e-21
3.84176912646323e-21
2.5036947191375e-21
1.00586467805045e-21
2.31674005663319e-21
1.81279383128176e-22
1.59181988009597e-21
6.10394507196414e-21
5.97153079179058e-21
5.6590838860628e-21
1.96779013031847e-21
1.37645438549655e-21
2.00748358328618e-22
1.44381747142699e-21
2.65347940831692e-21
5.41261082346165e-21
4.02170431849442e-21
7.0937384168011e-22
9.68760747379676e-22
5.61568448123388e-22
5.43211850261954e-21
2.66229398033573e-22
6.1252482596406e-21
8.76080872183756e-22
5.09277959207242e-21
2.80433469683925e-21
2.09920213933956e-21
4.32495057901068e-21
6.57849841946284e-21
1.10482327766408e-21
6.90521674432273e-21
5.68086946456921e-21
1.23357594022059e-20
9.00301933784848e-21
1.32926950858709e-20
8.47174958698578e-21
1.39278462421526e-21
1.00063201826417e-20
1.13425337895341e-21
1.3293007961403e-20
1.51026449771374e-20
2.57434620309973e-21
9.02969110598838e-21
8.2684932536745e-22
6.09608625285948e-21
1.47816059383428e-21
2.09980831346671e-21
6.69132456413587e-21
9.77041764516531e-21
2.96715488955929e-21
3.31443666562392e-21
4.05497635540824e-21
3.78521818897219e-21
1.25690449741859e-21
3.1020506652175e-21
1.01184217932239e-20
1.59036341576149e-21
4.90198167721572e-21
4.67155966535024e-21
1.41074382090288e-21
1.03377460015085e-20
1.11196189674485e-20
2.86551464272553e-21
1.05675581033342e-21
1.1122613992894e-21
1.99930450795815e-21
1.34511158777654e-20
3.62396303356157e-21
8.29310423002335e-21
3.7126701163137e-21
6.80763674675687e-21
7.98504302861107e-21
6.52839400770012e-21
3.16160999709938e-22
2.85407438425531e-21
2.35698571304378e-21
1.32130146850878e-21
2.34170948530165e-21
1.15686403847596e-21
8.56862990387772e-21
2.8306501707724e-22
1.21747281446601e-21
5.63335263307338e-22
9.25735677209147e-22
3.1609153509503e-21
1.93315432265585e-20
9.2125953872037e-22
2.13606241756774e-21
2.82601980500786e-21
7.0682253808724e-22
2.65790308938948e-20
3.35366251381433e-21
5.61129458578557e-21
4.90386505719343e-21
3.11354929222893e-21
2.52102079864878e-20
6.99272615521377e-21
3.65330168075755e-22
1.30115745956601e-21
6.77225836821814e-21
1.72249272394616e-20
5.55515686357105e-21
1.12997243985629e-20
1.10622770238716e-21
4.29829786211608e-21
2.03696795633292e-21
1.39843425576545e-21
1.865293437416e-20
3.56258865920614e-21
2.26067122614812e-21
7.14557028703441e-21
7.35066557657765e-22
4.21676596761893e-21
5.01893350014529e-21
3.24880918599208e-21
1.95854210505913e-21
1.53877760473047e-21
1.09545241719099e-20
5.48202741997265e-21
1.48483913213443e-21
6.09925390513898e-21
8.53202509273385e-21
1.14433316262631e-20
2.14612875434233e-21
7.03698195159738e-22
1.53571312140258e-21
3.01427063051258e-21
3.67007144179995e-21
1.17626079477188e-21
5.49341891349379e-22
6.43559845423447e-21
1.67940984140924e-21
9.22766481580753e-21
6.59690625625965e-21
1.52101924536289e-20
3.57730526928423e-21
9.25800245428578e-21
3.11988947041169e-21
3.81047630234279e-21
2.50306364170729e-21
7.49825216486073e-21
1.20238403444532e-21
1.74261259189261e-21
9.75603429919759e-21
9.73977834388379e-22
9.02335075236163e-21
6.16083846865957e-21
5.55455560260226e-21
4.09506781985958e-21
1.90507022644202e-21
8.12352282713954e-21
7.3937907234947e-21
1.24317961701399e-21
1.0535663884906e-21
2.07010835546015e-21
7.25486139412137e-21
9.33650745627488e-22
7.07145834290488e-21
4.51725953141534e-21
7.92440957009055e-22
1.78766325814342e-21
3.1774597673953e-22
3.21827786093119e-21
5.57627880585887e-22
1.50625500251398e-21
3.68707116165949e-21
1.05406666356166e-21
7.50881344099435e-22
3.24889868467426e-23
8.66403894452147e-22
9.55485459424953e-21
1.56123545945404e-21
2.12150507545692e-20
2.7671045305791e-21
6.85306972632145e-21
9.42829352286123e-21
2.36727055685664e-21
1.72399114482131e-21
2.28307267643267e-21
9.27669666948875e-21
1.00248776701663e-20
2.77111130473492e-21
9.51846469399418e-22
8.58968233986702e-21
1.67971574820866e-20
2.46515609888132e-21
5.08880108814285e-22
3.70376040522604e-22
3.44872853153784e-21
8.32538013627343e-21
1.75884973374682e-20
5.37936752556986e-21
1.10557092052647e-20
1.4773080018631e-21
5.51865812648644e-22
2.35149310535236e-21
4.43423988529699e-21
8.58531935069278e-21
3.65212978105745e-22
3.83205694968836e-21
8.43121324170273e-21
2.61375601000823e-21
9.8372140952897e-21
3.40544164749703e-22
3.05617529735179e-21
5.08380068975631e-22
2.96626318522676e-21
1.47254487226631e-21
2.15001794012394e-21
9.09577802707817e-21
3.18093435791761e-21
1.30530896219625e-20
1.55505665199608e-20
8.13188979576526e-21
7.30867641265005e-22
9.63185742168683e-22
5.03644566072868e-21
8.99957831782791e-22
7.33691975223988e-22
6.10165780723872e-22
1.74815946090545e-21
4.49060530986011e-21
1.85786666059877e-21
4.20610028065098e-23
2.724988862128e-21
5.27016308329796e-22
4.33219758256779e-21
2.77935177269298e-21
4.75814495853015e-21
4.75883251414326e-22
1.03211073302119e-20
9.57793015734783e-21
5.18792481451687e-21
1.75122076224319e-21
2.59658542353236e-21
1.54967538236407e-21
1.80978557184684e-22
2.64769590271386e-21
1.94183677797837e-21
2.26788771018555e-23
7.66005910066914e-22
6.0448687372807e-21
5.50701306511437e-22
1.27037900969987e-20
3.80989274035381e-21
6.03205009222998e-21
1.21601792578827e-20
4.39415586392755e-21
9.85194073098654e-22
4.4822375209144e-21
2.79769705777255e-22
2.45692943245512e-21
9.96256597340574e-22
2.38948032664795e-21
1.54189418925133e-21
8.73686359477328e-21
4.37000624754269e-21
4.39672486748338e-21
6.42117716131796e-21
3.61017408015749e-21
3.36610957133328e-21
1.88029368714794e-20
5.44758875785832e-21
6.58662443616253e-21
1.53867377561218e-21
2.18191172064745e-22
1.08004345467928e-20
2.83263588713209e-21
1.63014377529651e-21
3.12608278773261e-21
2.96175289152936e-21
1.98722028005364e-21
4.1668276082551e-21
2.0035246143254e-20
1.50131610233035e-21
2.05340636626301e-21
5.42072801242547e-21
3.65402823792067e-21
8.45518970364832e-21
4.02889516295764e-22
1.42618039116659e-21
1.49885872209757e-22
1.56786866821226e-20
1.33748028084576e-21
7.11596672851171e-22
2.64557522752231e-21
3.31470511047829e-21
6.07435958337476e-21
3.24663626635771e-21
2.59447720300539e-21
1.94410254767708e-21
3.85689227898777e-21
2.08894388883621e-21
1.22947300673567e-21
2.26596760095033e-21
6.08211160003162e-21
8.98214938270311e-21
1.31642200452323e-21
3.47920572656511e-21
3.85027659598761e-21
1.06499377505154e-20
6.93864033294228e-22
6.33045176469313e-21
2.45649363952463e-21
3.52264903861351e-22
2.13325497111667e-21
7.11104613628429e-21
5.42274151878352e-21
1.39166192325381e-21
1.77388407288799e-21
1.80594438664087e-20
7.7374471963006e-21
1.13321073007099e-22
3.16611708237316e-21
8.39556612050434e-21
7.30127402373772e-21
1.07666492429071e-20
3.13152451040219e-21
2.7836311486468e-22
1.28279863305221e-21
1.66903158602341e-20
2.64145281407314e-21
5.8626102783387e-22
9.26378144689794e-21
8.20230048476513e-21
1.03481652072882e-20
2.1279962946848e-20
4.55041809204081e-22
5.6267152977844e-21
7.53268511564722e-22
6.15142292076324e-21
2.38257132768316e-22
9.04292795122229e-24
1.14549775096189e-21
6.93707717111721e-21
5.15613036672595e-21
1.96337356931704e-21
8.56605053923656e-21
4.21736569298056e-22
6.07451871996612e-21
1.47852237104402e-21
4.64161345994953e-21
5.39711149272361e-21
8.54684489775115e-21
4.53617383260192e-21
3.25784703072794e-21
3.07035416894836e-21
1.02441792440146e-21
4.3572649257949e-21
3.31263673350698e-21
1.66460504812172e-21
1.18079537405787e-21
3.08703968709246e-21
4.50967652834552e-21
4.22740197169091e-21
3.23378427386222e-21
5.90417738603153e-21
1.92555421086742e-21
2.03378300586869e-21
5.38933965604868e-21
9.28829318944971e-22
7.74655281871416e-21
5.53178063860438e-21
4.21884667400221e-21
1.29286094851415e-22
1.72413267241867e-21
4.37970561990346e-21
3.99410984832311e-21
1.71728803497055e-21
9.48007332643867e-21
1.26641326345973e-21
7.7619333589248e-21
3.86222712448446e-22
8.83828167480357e-21
1.786523282169e-21
1.51086097719654e-21
3.85697442032168e-22
9.32693629078718e-22
5.70870461938443e-21
3.07226949411569e-21
9.77285792553322e-22
2.81862286018827e-21
1.537955242175e-21
1.52816710885177e-21
4.0230371456662e-21
4.44548019633312e-22
8.343029822918e-22
1.9986337920013e-21
4.33397928932596e-21
2.48166282384883e-21
1.2982686219875e-21
2.73911119173605e-21
5.29139091642994e-21
4.5046412786268e-21
1.27953038200503e-21
1.16001379940131e-20
1.36941346526554e-21
5.39554033124356e-22
2.80592449627171e-21
6.38456225403302e-21
4.66679492397716e-22
5.32283952698551e-22
1.06386991934746e-20
2.58040753922318e-20
4.31623395466221e-21
1.67369823284661e-21
3.19076304612759e-21
3.24595213572648e-21
1.05159207493416e-20
1.43108703270764e-21
5.06427706889894e-21
1.13652624710557e-21
1.47826278264229e-21
1.12744610464449e-21
6.0655163279473e-21
1.01998072446923e-20
2.69554778197939e-21
4.04409474665609e-22
7.10452258181769e-21
1.94230286635791e-21
3.22489263833142e-21
5.16961521829179e-21
2.73842778616071e-21
4.64770595618103e-21
3.206208503159e-21
6.23918526387641e-21
7.39101118167677e-22
7.04519881399452e-21
7.44619211375534e-23
2.26863873966645e-21
1.31438047971621e-21
1.78934774897727e-21
4.51965087839346e-21
3.9815557602493e-21
2.3461959721079e-21
3.00303908152503e-21
6.69422009186569e-21
3.12181034357994e-21
5.58326752243631e-22
8.09534699622328e-21
1.58019264055332e-22
9.55726268863352e-22
2.53576163777278e-21
3.41377131433823e-21
6.51927736166542e-22
7.37480351111309e-21
4.55976450595154e-21
4.80489421778603e-21
3.43711654151209e-21
3.48703521492618e-22
2.51175385367951e-21
2.94230669256954e-21
3.10916922722754e-21
8.27473007530018e-21
2.26198590897135e-21
2.11784392876259e-21
1.7892323612021e-21
5.20516636513767e-22
1.06985282089432e-21
7.36843638984355e-21
6.24454619036163e-21
2.02497736866771e-21
4.17533684425873e-22
3.87938190266949e-21
1.00716544290802e-21
3.7334550636662e-21
4.12218274023548e-21
5.19934875361579e-21
2.64286531964979e-21
2.91345995731429e-21
8.36187557319041e-22
1.04634899659229e-20
3.35506268056676e-23
3.0346179163608e-21
1.45686828776537e-21
2.94922828725708e-21
6.78715222093566e-21
1.97864002508391e-21
1.8271292104206e-21
9.11727419645715e-21
5.51524155001381e-21
8.02155718996027e-22
7.69628385889243e-22
1.8590642409505e-21
2.70989817485575e-20
3.8701791269013e-21
1.68981933110058e-20
3.25265778058701e-22
5.26707038139213e-21
2.1232687819533e-21
5.73594693511534e-22
5.89383892002252e-21
1.21363584359066e-21
7.1955380422933e-23
5.5040359040407e-21
1.34080630811039e-20
7.56508614567859e-22
1.14674857486624e-20
3.14170190632879e-22
1.68022000438073e-21
5.2376525488472e-21
2.71573842457096e-22
2.26542677778873e-21
1.99764594094202e-20
7.91335178411028e-22
8.35009300997644e-21
3.72840123360568e-21
6.11451232371059e-22
1.77242661795217e-21
6.29972855056492e-21
3.05917218358358e-21
4.49382268104569e-21
1.34575247428043e-21
9.23307643703798e-21
5.84136158771528e-21
1.28910728849536e-21
1.90278826142732e-21
4.68328920547215e-21
1.238441200391e-20
3.37774378229459e-21
2.89829892410889e-21
2.73032583513115e-21
4.40420889063967e-21
5.11484383598098e-21
1.61892168499755e-21
2.72064863034292e-21
5.72089878025317e-22
2.55549561076437e-22
1.1238968777221e-21
2.26156076622773e-21
2.22417447602859e-22
5.33500397740136e-23
5.90748968237091e-21
7.51159159200075e-22
1.49792489749949e-20
8.12396844792256e-21
6.47690505270018e-21
7.70999889228947e-23
3.19207317375356e-21
4.63808946980643e-21
1.66704660046139e-21
5.08743627435762e-21
2.42413416778598e-21
3.42364674188923e-21
6.99444647254657e-22
7.20706436685468e-23
7.64489670578578e-21
2.60825206916191e-21
3.50518005076909e-21
6.00724248642937e-22
1.54265376438363e-21
1.55673956316721e-21
3.10006339813601e-21
2.25386713147155e-22
9.21859406435339e-21
1.1411535732076e-20
6.8846659188961e-22
1.49634375569526e-22
1.22492440975985e-20
3.79978914821698e-21
2.10331841532868e-22
2.31983715784211e-21
2.87439853834772e-22
3.85870716024452e-22
7.18337286059568e-22
8.32578595018923e-21
9.16039034003068e-22
2.61966971207541e-21
1.87065301092313e-21
3.91042412837996e-21
8.37735144683196e-21
1.51392880627171e-21
2.93151382098893e-21
1.18142380171876e-21
5.02607686715659e-21
1.75996413494956e-21
4.69651050099312e-21
9.92110488545775e-21
3.3130221860743e-22
9.94434974663185e-22
3.57996814426911e-21
9.010572201511e-22
9.69804525343978e-22
4.02074110647808e-21
1.47495608663097e-21
4.652107244549e-22
6.8293914831446e-21
2.86099398231643e-21
4.35412613438749e-21
2.15528747413509e-21
1.48777276176249e-21
4.1444299205035e-21
1.93182725809854e-21
6.32099409559114e-21
3.76987131936852e-21
3.23753784513113e-21
8.33338859953684e-21
1.33918816715011e-21
3.93460667572282e-21
4.22287619242017e-21
9.24871351804965e-21
6.25692107546909e-22
5.6162411010416e-21
1.88894198970707e-21
8.54138930012659e-21
2.2148797525632e-21
8.20002451864204e-21
1.94373109664355e-20
1.05791903559434e-21
1.32502224059057e-21
1.26402500164693e-21
4.79587042779003e-21
4.54634102106201e-21
1.57816994536481e-20
1.81825718809234e-22
2.80624715704135e-21
7.62886802760584e-21
5.26303780844843e-21
2.55663896594851e-21
6.33524104290253e-21
5.48628683324512e-21
5.76830473427198e-21
1.69072841361073e-21
1.03845637605225e-20
2.00994896014116e-21
4.40843472237838e-21
4.9079112788937e-21
1.00480033782043e-21
2.97210197168073e-21
7.8379041678781e-21
9.89026398195329e-22
4.39812266189339e-22
3.54940455494497e-22
9.72137600681597e-22
2.48964653824398e-22
1.45936023057511e-21
2.78423133390671e-21
5.09273900330518e-21
1.57477760252609e-21
2.71965839691639e-21
1.17490515090574e-22
2.40771897765555e-22
4.26066468076766e-21
3.30747734774859e-21
2.1698741749143e-21
8.09263657435867e-21
4.75330509779852e-22
5.56053502802073e-21
1.29483207830627e-21
4.56719121937628e-22
1.77128434625561e-21
4.13512325031822e-22
2.85460488845976e-21
1.13872326407136e-21
1.07295693220058e-20
4.02905103909837e-22
2.93263111464293e-21
7.52994001046588e-21
7.72047571818469e-22
1.7857970375519e-20
8.21652165133333e-22
1.49109057580954e-21
5.02810808647937e-21
4.25373176541149e-22
1.89365111415513e-21
1.21968597186546e-22
1.39352638862597e-21
9.56428055238488e-22
1.53208039022798e-21
7.17641066304298e-21
4.03176784780451e-21
1.27659600223847e-20
2.67493099962095e-21
1.08621548413341e-20
3.2520924243431e-22
4.99792482709534e-21
4.09571539457862e-21
4.7843848081067e-21
8.69934903199134e-21
1.60520232561269e-22
4.54528472062755e-21
1.21195265405142e-20
9.28148650898677e-22
4.804053302549e-21
1.41203889100769e-21
7.68760772003e-21
4.42363127098155e-21
1.0757686950871e-21
3.09730830365388e-21
5.91417114453976e-21
7.9414166959699e-22
2.16748642212741e-21
6.46354365076187e-22
5.70386358968462e-21
5.27894453328018e-21
7.67429051678475e-21
2.12511005039276e-21
7.19111615275892e-21
6.66800426485601e-21
4.72347748865255e-22
4.95510401119817e-22
1.56495847928781e-20
7.42454254255583e-21
2.96931810292848e-21
1.09791979878431e-21
4.26007907372404e-21
1.45297442284692e-20
5.15458663666124e-21
3.05713012239809e-21
1.02384829840194e-20
1.05234205255649e-20
8.58749940275163e-21
4.59763246647347e-22
9.60900101152089e-21
1.49208208839308e-21
5.63527768671752e-22
1.141740159087e-20
2.14195936760105e-21
2.45250711940509e-21
4.48879261007486e-21
9.80994118558696e-21
1.93037330496724e-21
2.35293902734255e-21
2.97814570084494e-21
2.95926197897117e-22
1.57133915274573e-20
4.73290223610905e-22
1.2450619900176e-20
1.3354821652437e-20
2.91967287534046e-21
9.13989477148869e-21
6.21461523055281e-21
8.21090039946612e-21