/*--------------------------------*- C++ -*----------------------------------*\
| =========                 |                                                 |
| \\      /  F ield         | OpenFOAM: The Open Source CFD Toolbox           |
|  \\    /   O peration     | Version:  2406                                  |
|   \\  /    A nd           | Website:  www.openfoam.com                      |
|    \\/     M anipulation  |                                                 |
\*---------------------------------------------------------------------------*/
FoamFile
{
    version     2.0;
    format      ascii;
    arch        "LSB;label=32;scalar=64";
    class       vectorField;
    location    "0/lagrangian/dsmc";
    object      U;
}
// * * * * * * * * * * * * * * * * * * * * * * * * * * * * * * * * * * * * * //


64098
(
(1095.9585026378 31.7851829041753 1074.76848050509)
(1120.94003221212 -493.231599931707 624.500160164828)
(1216.5024586867 -178.818242240043 1041.68812683016)
(1542.92116820249 -171.468058961892 801.732330142414)
(1430.21222836037 69.6295332984588 801.851669969175)
(1479.92508015503 -698.843254709137 669.637415580458)
(1271.16464961097 -313.162417683982 847.557886862443)
(1824.9516800705 -691.872319065317 1189.98334650278)
(1851.06029390046 -103.630566392295 767.055419423724)
(1134.91213586355 -99.7206865832932 387.175294058065)
(1434.19542943367 -192.555268382553 203.317186470622)
(1611.71164985408 19.076463645233 332.970188055657)
(1079.47823771176 -276.785692897161 856.3788719301)
(1533.7702089455 -424.133080973545 918.289388411851)
(762.047125064978 -768.152851839435 1052.51225384698)
(1400.9001714683 21.1395617264286 1239.70595384986)
(1350.97130036948 -516.719610475329 839.836433521086)
(1198.77684382713 58.9556510437183 1103.22467680528)
(761.127191987352 -127.491078827548 745.446183682517)
(1354.87175725182 -308.1309218897 1416.972144449)
(852.674783017702 -191.272858988498 956.693415337944)
(1834.4074282759 204.299707336015 921.877539007163)
(1426.86843973746 -598.711658947321 457.425626332624)
(1347.52210325497 -187.210549871886 679.769543960685)
(1070.64424296195 -764.519118503187 862.347702438662)
(1469.97185641976 -721.890259356438 416.217450967848)
(955.369806527832 -786.441783163507 813.397233606067)
(1850.97911966062 -141.197838215656 277.029484780142)
(1306.20696662493 -506.222658081945 692.041919539676)
(1251.07114979831 -300.445679407031 543.041256873836)
(1248.57472170297 -623.847899342404 1028.84903021831)
(914.01126975577 -688.113905573699 642.857746862035)
(1550.7980401546 -292.107253784771 594.2762246315)
(1193.91101556568 -277.932047880874 649.366511772544)
(1141.39797425354 41.0272466099499 620.299266938689)
(1491.74935078707 -248.809569194968 1091.13659306156)
(1345.42701115309 -252.094256170458 350.175088028307)
(1622.55396639218 -26.9580092500839 941.147622269794)
(1666.04720125351 -425.181518766058 886.029685185214)
(1043.53946188738 -857.043323678222 981.982917109537)
(1580.38838314234 -187.469180402476 507.106137003119)
(1287.10363561713 -154.434564351234 577.444997406751)
(1103.48618350974 -666.631607825466 958.967565293927)
(1497.97557557726 -642.614719266568 799.001915433715)
(1603.34590631738 -611.588638800952 1070.57528359253)
(965.404848366615 -411.586612447752 501.320655479864)
(1291.74479287455 -103.0240841598 995.27812965957)
(1085.15765844884 -221.556277833756 176.53884828151)
(1160.93052261783 -1093.89438176265 910.224050124424)
(1426.73796148532 -170.955992644805 1073.90188049056)
(1398.50948851688 -410.896713072643 951.433253645114)
(1201.98848930719 -27.5434626081565 1021.88534199751)
(1568.19557095144 -447.222917520429 485.115146628152)
(1114.68497037251 -488.788326320768 833.460168805847)
(1272.79490264799 -367.103344076437 957.53174687711)
(1040.46082494005 -696.996739716501 1509.16235116198)
(1077.39966751818 -52.8669606862462 1228.96023387322)
(1256.03815377942 -461.515198405256 967.208177845327)
(1169.45561471539 319.155408101628 1197.15911849953)
(1017.73468556146 37.790575698133 536.115149001665)
(1368.03064970374 -556.299369013021 895.120993674095)
(1410.61162310693 198.083594667832 868.158025758303)
(903.427787994078 -476.434814546301 988.183448204363)
(1602.67458734218 190.131232999558 575.691923331376)
(2088.07923643708 -539.284916471604 754.867908689371)
(1118.51382939875 -546.946494866813 1025.15787880055)
(1248.21927538135 -863.602437692869 1382.45558093233)
(1477.08927061373 -204.562447964092 1031.73656439655)
(1194.16858831246 -321.136040249545 1038.88549313865)
(1464.68912526006 -291.411116533412 721.020850772715)
(1852.67299560491 167.097861327469 632.341490948932)
(1029.10876812322 -1065.74472900155 627.236056527481)
(876.005245087121 -117.852324566503 1080.28771980324)
(1055.1105179686 -6.77054949177381 732.840484773198)
(1695.81929399642 172.312392470274 421.61673391315)
(1902.01546728758 -1137.94042301847 679.743292005485)
(747.530246290009 -274.89826373151 1014.95724127467)
(1689.12678796154 -593.051475180617 534.359655938806)
(821.753394768491 -21.3110781769911 861.16403675777)
(1393.65571691852 -41.8659701436607 450.609289020032)
(1297.05089008554 -243.251834290836 1271.48907386723)
(1278.63973040172 74.3353089548179 760.028865305724)
(1706.38925271336 -533.271114369408 958.942662499432)
(1333.13622773285 -223.972558523527 912.051663744901)
(1129.01631319241 -141.461247775985 579.775185882966)
(1067.92684404009 -503.93372103647 1043.16496966487)
(1625.818359184 -589.123204007007 1017.50625649416)
(1148.42353413311 -452.2672107461 864.144188416283)
(1976.74197024562 -450.826906999968 594.015488264459)
(1535.26840331645 -378.621346198456 667.194514078547)
(1275.86402366012 -600.836721381141 1107.11363899354)
(1537.10852886184 49.1094863995313 851.083325663966)
(1558.99560133835 -332.425559533495 786.681602194995)
(1470.53459381881 -575.061639116282 611.957910998097)
(1466.6994443787 -465.084907856987 1032.09688535334)
(1296.6300358372 -174.940191249367 845.349630713453)
(1270.97444254997 -594.045251070718 1183.04105896391)
(1237.40984088651 -263.947436013227 477.914850308399)
(1345.38667751399 -431.010636493888 672.195695706409)
(1067.58902220089 -517.994185274435 653.212930534473)
(1558.87008892534 -219.303439944172 909.972116205515)
(1018.93230952115 -526.396640715012 1375.45033623302)
(1264.98308842461 -262.81192091698 977.817590162283)
(1496.94135577963 -315.335024417205 886.618308472928)
(1905.90943141366 -25.2110468044694 1072.23182646248)
(1153.46804139299 -12.5450462067703 1019.02329243508)
(1516.11232179588 -69.9478038293242 809.240973221419)
(1638.68842036125 -83.0394693989668 709.226373446767)
(1135.15881685962 -345.512274281151 738.404030022365)
(1312.24426224258 -348.631546083678 526.804343997312)
(1791.64994740058 -150.549622524295 1215.09009311528)
(2093.52528951355 -148.842329729195 157.491376942159)
(941.863396073639 -239.66842358853 692.770504731082)
(1291.22594053705 -784.905494178072 893.726744981024)
(1337.88133537976 -354.112453192389 1219.52796714604)
(1595.44999118462 -631.603174355613 409.580093023468)
(1131.6127322691 -467.300563861119 851.979975718864)
(988.991783680319 -658.235274168014 842.070743019386)
(1572.99589902909 -208.790891661705 1154.38057608587)
(1452.75817233108 -555.312845668615 471.324977944263)
(1082.77354571076 -213.585555890265 805.730570683753)
(1279.50496279212 -651.685901779687 1282.61354698728)
(1242.24453076259 -576.076575329243 1112.26692639341)
(1115.05128782275 -308.062566804095 1116.97181078774)
(1325.9638230443 -362.624650340093 1213.34298833645)
(1119.58677176172 -509.397394148431 514.441095728155)
(1154.44031781861 -25.7529763553038 426.386819570373)
(1042.41951947028 15.3321722816358 729.381935501724)
(1066.62842818599 -197.071401186398 807.885295247507)
(1482.58709716534 -659.477392622156 1068.16450770571)
(1710.11337923368 -226.494043620256 682.226765999819)
(883.631562613204 115.402758999073 732.055587394501)
(1450.28622809925 -478.335403829553 753.476026099565)
(1800.93745867739 315.541927034607 713.483294548091)
(1013.73862787982 191.587428319875 448.438911778927)
(1193.17612073238 -365.1099545353 1011.5611810577)
(1690.02246791487 -412.992498164507 1432.70502005227)
(1409.98618494807 -554.347334878542 928.130639310769)
(1196.01395060211 -376.384295776179 966.788901400029)
(1212.70392689549 -529.652573113119 761.084783432281)
(1266.55032189358 159.191688571043 1327.0022943577)
(1187.41016663035 45.8534676845208 605.495071013903)
(757.706751303056 -610.564837997106 434.353123259548)
(1389.88178415651 -71.0868746420423 770.83148304037)
(1304.05331563611 -900.85953269402 37.6438787634886)
(1636.77024850992 -472.854085098662 588.511970732662)
(1062.85798570721 -36.5922157264912 1327.55338230342)
(1105.30315497695 63.6055958659679 356.721322561163)
(1190.528261411 -12.492518359205 977.127169389973)
(1166.00635131603 -609.813086557882 568.786340245935)
(1268.62204459325 -943.139483608994 780.645565084192)
(1261.2873128767 -212.27459285567 1244.46629204994)
(1276.55610075954 -661.687029869884 588.364127159535)
(1991.19452031688 -25.9302512053062 1269.87670681634)
(1394.05861748781 -501.40613880032 1006.04893400603)
(1258.31313642039 148.357314015929 485.865532327294)
(1441.5268042379 -392.458825058615 312.987312637629)
(1219.59722553083 -697.565711679758 920.820748360144)
(1481.08136316436 -390.93068808356 686.69673353487)
(1865.48324845205 -625.250818593554 1146.84262095695)
(1124.45384600857 -886.465290023102 603.273185104827)
(955.894334127912 -527.211044693563 695.480982806784)
(1107.9784160052 -294.196095584468 855.050081869967)
(1338.82892448994 -860.230557605409 781.292870039854)
(1622.40188280731 -433.490133275451 436.056162944629)
(856.634854476611 -537.832442195663 778.603187350258)
(1136.47961939035 -253.424411088627 290.006097659357)
(1123.34541649318 -625.37372375237 642.750863131597)
(825.18998264904 -720.807940037505 893.764688503027)
(1424.19720140486 -593.306605421358 885.984382302907)
(1548.31627098535 -163.526904395544 677.767672091522)
(1462.85910254301 -565.5629301908 690.18273400826)
(1296.8215428478 -8.31083085509533 472.806979743014)
(1658.12509708985 103.049626097378 856.918970560397)
(1103.78115014914 359.64886105891 1262.12187552265)
(632.707663458641 -459.339948006423 947.452845099304)
(1095.75081356666 67.4699572261188 706.857129527775)
(1219.2234241193 -710.272309018271 1031.44853312995)
(1514.39534134161 -242.20041655885 1299.13466561846)
(1452.1279349008 -449.15891474432 1269.36055170843)
(1486.35785005028 -257.9854527678 1029.10109782181)
(814.107332420282 -369.182514107704 721.836429135186)
(1192.54404271106 -522.301273798778 987.204333445501)
(1459.35362442264 -443.520412127841 539.259098768734)
(1962.33372673527 -421.56317358134 1059.81673990889)
(1846.81520596841 -455.502944367007 592.339872133764)
(1267.41402619364 -770.9203660909 661.681563882017)
(1357.83911805279 -245.983516591581 308.284422713438)
(1561.83623443558 -138.67777768477 314.149813845692)
(1553.24511588766 -205.965681623578 854.710181375361)
(1142.13007455981 -385.416944931292 621.178888638648)
(1118.09587105831 -485.438048560888 1177.41174147586)
(1269.75750541044 542.085063926602 1107.84248307646)
(2140.20991426186 -666.821876158299 704.704594261077)
(1682.61860900385 9.28207490376616 610.681162385293)
(1597.15871462854 -244.814719031199 985.332286273431)
(1353.68071327373 -489.644031354705 807.940880398595)
(1303.74456503615 -107.411221614191 158.308460868467)
(1905.15566677497 -1129.24173134474 873.525619973318)
(1083.87414756377 -321.684742820411 123.081475793994)
(1753.75643006499 -258.899885559977 996.481611518352)
(1399.49294898344 -629.684612089102 1193.77761843183)
(1041.69107542808 93.2908618270894 593.727548366469)
(1153.70949109977 -1173.873596062 1078.52522572343)
(1495.99263815475 -344.756543526444 919.503696675681)
(1215.1186776471 -855.57869600947 876.217628996499)
(1857.39008727142 -590.355303366752 1111.40970324589)
(1438.46495526667 -628.352729985897 1212.70664769106)
(1594.55260594941 -382.00962951196 1346.13249788778)
(1208.64286541701 -31.581505914807 1059.37154379093)
(993.233118044741 -501.548355707841 832.591195287225)
(1686.72154762029 -158.404436652806 904.494159444054)
(1595.48683815909 -551.193244618374 490.532658925519)
(960.68876682877 -182.311190857718 175.131785918239)
(1189.4124182883 -349.213766624256 427.624305142101)
(1237.18203868696 -213.148407760141 849.261956132402)
(1273.71504192318 -501.452152361768 1351.42787938035)
(930.947483144887 -631.35809407341 890.192573974075)
(1592.19288462684 -1050.73828493017 910.616067827615)
(1704.78879138115 -204.318519339205 1231.0482600412)
(1387.01719392351 -5.67749092662626 1137.85503010518)
(1571.74663447457 -482.989934133145 1043.15509642347)
(888.964784011716 -590.045140392037 1057.66816364369)
(1630.43029051096 -233.888644480351 1326.16055251265)
(1024.28495702613 -583.903073756695 535.783588831575)
(1393.23212857512 29.5843658285492 1195.07882171296)
(1523.15902289352 -499.648966392133 1518.55842796227)
(767.152627911188 -834.12284038538 810.174180115325)
(1512.92948494661 -550.029923845286 565.84042655022)
(1100.4949090449 -719.456536438816 1199.06571630787)
(1683.25598332794 -534.451446331964 1182.31462131413)
(1365.25195958787 -130.165122868763 377.825637616086)
(1218.56510740428 -139.132590331965 1166.09199037738)
(1830.15010712542 -130.492970146241 887.366819143829)
(967.094849393183 -342.342745765393 845.35925047686)
(1430.29862827888 -794.763180204204 676.781253686364)
(1686.67406170165 -37.9981876193929 761.062529594224)
(1299.5789102697 -515.741580589047 1121.18510373716)
(1157.41691801957 -330.953627833679 529.686521877534)
(835.183519739435 -97.6857798051963 446.603627820231)
(1865.45706537387 -696.500753850289 445.410481627457)
(1183.33813885083 -651.679703584793 923.142163504393)
(1588.46804922692 272.294351475122 1147.49966485789)
(1304.63779519641 -160.217509392511 558.859916784226)
(1352.56303673265 -211.910931219352 1032.38145618996)
(1398.84489978908 18.9717919268602 561.434442963733)
(1332.55091291336 -498.942470309199 718.366246020159)
(1290.03377735693 -71.7927690698426 880.384781148146)
(1230.53046763303 -176.899899359199 864.239944925815)
(1295.87821661406 -412.947392918913 740.519042833503)
(1033.62187915426 -289.488489767424 745.78695933849)
(1410.35084544648 37.9300696544989 463.75828514631)
(1309.90419544887 -802.670395828524 660.560215939997)
(1400.579938568 -589.379640506138 690.554888211471)
(1427.39154184681 -687.899914097215 858.773980586764)
(1221.13487980791 114.778035099749 1144.02670107146)
(1366.26789426743 -115.589797525918 960.795445241907)
(607.880683940627 -649.961000244318 1271.51707606106)
(1715.96990731316 -528.839114700024 876.670907464471)
(1591.11194419359 -321.791567815377 592.848445107535)
(1532.44246118418 -465.47382467096 874.882026278327)
(1098.48057928734 -502.873357006277 692.699708243893)
(1474.28210218041 -641.041875364729 906.134982273435)
(929.383500278731 -577.424120294506 1103.62872634636)
(1378.16170973181 -531.95663258738 841.211937104341)
(1138.99933555561 -179.231015382394 1480.26591691045)
(1005.43754564171 -245.454415025122 1014.94846398202)
(1251.43785320958 -574.161433469947 1189.45366186828)
(1415.49567913623 -332.106132966093 1591.74749827298)
(1496.76440006951 52.2125403262968 636.993574917599)
(1323.79459914816 139.208943429297 645.647734816857)
(1520.71776720945 -463.992934079664 789.931451338541)
(1528.58920448046 -32.2613255883807 607.730555399596)
(1038.55889620367 -319.532962119313 235.762599710674)
(1323.24712080927 -374.760344329377 342.74423350513)
(1840.97054281085 -422.525842206085 771.300232341571)
(1560.60391196801 -60.4728650825708 1085.94470471459)
(1346.84946418834 -478.882590777444 878.0131938282)
(843.098206243113 -754.412753752702 695.380341819617)
(1264.10702776468 -549.672117360472 872.363296719149)
(1613.45454613802 -105.560462499298 1208.05038640471)
(1046.62540121604 -616.189783819574 646.322921071055)
(828.00099241772 -152.378345995516 1066.61916978343)
(1573.17930590137 -402.428557089819 793.370759046393)
(1153.97370859874 -705.137734931877 566.856679022909)
(1174.25686719322 -360.949381609802 387.330931707764)
(2079.77418656382 -387.351043247818 693.198443974935)
(949.830569244056 -195.294007215574 1135.36229901194)
(1367.75867897053 -528.523520554999 927.155215087317)
(1509.7015941719 -204.181343085456 1113.61319458562)
(1854.76941130167 422.885106277155 911.550742161558)
(891.147678967571 -313.192950876027 633.894739594137)
(1142.42760264064 -445.18667126936 664.815658016867)
(1495.78397531887 -422.84529665578 1163.96179948804)
(1172.88960042261 -485.493082095212 908.956856935391)
(1420.73727434551 -145.654178479843 1000.35949406822)
(1619.72511722704 -125.840484563053 537.634667043514)
(953.055197445098 -122.846157909086 613.498554749823)
(1127.83746588624 -242.503812396316 965.83200234101)
(1563.19285728527 -374.502947024812 357.379105226613)
(1365.3811421887 -720.898230514772 797.530808158336)
(1311.27107487005 -44.2455429584504 561.951613299965)
(920.255607386426 -36.4360378530753 756.221142009052)
(1062.57082908478 -419.537146739522 816.795411164873)
(1223.81575389465 -374.707646204163 611.418369936987)
(1326.88277752818 -777.966933848267 606.514509905886)
(1505.9181971573 -189.598208864653 558.07642419718)
(1467.90489664988 -594.27634328946 844.19265351938)
(1116.03668191936 -567.622619139809 725.008731117939)
(1277.45090054998 -106.956422277684 1281.49075310237)
(1942.25896798763 -358.695406635956 471.58386357338)
(1054.97026690092 -168.809472370875 904.224778020845)
(1480.62586271316 235.392536923388 374.780414338439)
(1432.16952757168 161.01558478889 764.141298674995)
(891.05135284758 -465.74152633555 740.863140816896)
(1573.15601979264 -650.629862400924 769.793209307967)
(1499.78575258845 -202.50418815925 643.045906470047)
(1224.1325227821 124.322727173793 988.822161072552)
(1446.32979444424 -630.809752165212 1200.52705101728)
(1179.79303719196 29.9754624865352 872.104536034959)
(1493.18497319012 -257.313557680042 1033.50705802639)
(1179.04830636733 -863.737233875697 1447.41436352707)
(1450.20569879328 -720.718674099088 1211.80487853813)
(989.697844339005 -525.971517193859 830.799403584243)
(1246.80416300926 -716.650276462804 892.433233094605)
(981.491607618229 -402.844963780649 568.274033478723)
(1573.75002534827 -380.328029734303 557.432588589044)
(1730.47194102825 -337.979224472175 524.114800050792)
(1639.71665906396 -423.389712460506 706.08429844632)
(1140.67555890416 -149.527647600228 625.170575586073)
(1484.17552739297 -608.71405258833 1105.27556067438)
(1171.04387163464 -809.674910040225 447.322175886674)
(1370.26226037939 -721.957892029247 1050.53503915612)
(1095.78562019499 -1264.56400066003 346.261888216669)
(1111.94143884266 -328.758549079099 443.021072443741)
(1951.01741442856 -257.874682961292 890.712803951618)
(1240.69878790976 -126.878764587121 897.114532728885)
(1063.86544578862 -147.464140229315 1062.77053084474)
(1448.3424824614 -180.0356076532 878.158355351661)
(1340.18861969308 -607.557640723513 1290.26403268722)
(1073.83928892956 -712.461555372538 439.5259430822)
(1937.7123148227 -810.298091738091 1033.01679712048)
(1392.54196031025 -617.940298757751 393.502704850946)
(1634.19424211178 -696.779084727438 619.924202216323)
(1184.7278030264 -385.145824285299 717.703440079292)
(1494.77566056896 -216.404594461585 894.93961502533)
(1418.86673931658 -251.569165031398 903.780358994133)
(1270.5278788305 -848.018627243888 793.092961497534)
(1173.76778691964 -314.184655379512 1026.78600311735)
(1245.32321896257 186.418079346103 940.51708105462)
(1449.05733146664 -484.663532459787 683.629291720123)
(1453.46815032973 -319.565744154939 537.01028177778)
(1400.04839492702 -349.390742968296 637.056663447619)
(1533.32203011135 357.529485321014 1026.52955940968)
(1400.95288910872 -812.272867781745 849.331537615555)
(1515.19194124621 -513.645403929099 920.763803148151)
(539.905515390833 -230.241810983372 1159.55313640015)
(1366.91551718207 -505.422073053589 344.525167861228)
(868.662486084729 -288.320051625022 529.524940631544)
(1487.8583805713 82.7147620580251 419.54701990381)
(1272.46222122467 -248.201482672622 878.411946341613)
(1239.47539586363 -425.209022887904 691.411040297937)
(1099.57905258264 -10.4008330554285 684.624547581337)
(1063.00587926065 -469.836921670012 757.38231074705)
(1491.65132845315 -488.837804330738 945.366510854864)
(1209.87808121199 -722.275943901097 694.12288133298)
(1567.34699544318 -927.099529418349 957.364878671723)
(1596.95622621468 -31.3293211460528 1163.26150527581)
(1465.94481960019 -502.979365116415 1045.3017801102)
(1439.01304031946 -142.466174637029 1109.58259579883)
(1512.68185593661 -25.3740164049439 765.729595616584)
(1063.15310906968 -301.501282710383 282.879146007852)
(1637.19957867214 -306.003034779518 527.732213222823)
(1195.97797798812 -267.001769552974 1006.49447497071)
(1388.01163403909 -126.516504409349 396.302332695585)
(1482.97577438735 -266.091716269781 571.415304169284)
(1328.54695797534 -525.49853217971 860.577927745169)
(1660.5006148278 -890.9689863737 680.25753518978)
(1543.67486682974 -92.000922701482 1090.48145947782)
(1413.10003635295 -410.392862794917 349.606083698439)
(1628.72659953154 -1018.89051211319 293.964620473338)
(925.441258427222 -290.648832995935 800.861330602895)
(1662.04165230406 -858.140153427921 863.849450797744)
(1539.74425991203 -74.1966727826347 512.347157491573)
(1199.11423678053 -725.315979653794 865.67958016757)
(1742.60958734746 -1017.42705730403 1091.00243633816)
(1219.46688108218 -345.656864175176 750.480919339688)
(1558.86907266376 -480.116922563046 821.790894558715)
(1664.14380420464 -613.286468753132 1216.11038327369)
(931.530462803766 -587.307310385136 579.579334170051)
(1220.66796103097 -570.379360787305 933.077348222023)
(1289.62411809162 -399.629650079393 1009.32494889995)
(1097.70801440809 -576.863137354403 499.539173808005)
(1681.54256105453 -153.082667977455 620.613762206586)
(948.817965532481 -817.785874325986 706.227701272685)
(1371.64146825047 -412.311248945409 1037.79201869167)
(1176.95803961765 -506.603230887923 945.999914346575)
(1746.56134125573 -746.601794750585 559.477289394252)
(1065.41813307262 -269.402001295122 674.903991223857)
(757.87399167639 -22.658001592542 752.55222983086)
(1174.41977904817 -1023.15073333136 1129.2368429569)
(1210.98762767984 -5.85287137319335 894.57516476702)
(1142.3151036124 -185.721985149342 709.987315879268)
(1600.20946852964 -876.899550981282 733.20602795294)
(965.189229511357 -262.808507916716 797.530068485268)
(1156.31493764881 -478.543879957099 766.75535671997)
(1387.52720311901 -352.317749119288 458.826299081501)
(1064.67743600002 -717.519399398467 835.963644521578)
(1466.44549936726 -883.277017684204 768.224305929291)
(1381.34191974285 -451.547822834032 807.112276462605)
(1493.81071510479 -788.53695150395 588.3155060334)
(1507.34778392714 155.031861055629 1058.21016113147)
(1600.47742664193 -457.777096981387 442.130469994093)
(767.655483313412 -313.468832568314 376.618639018867)
(1535.23476644115 -880.056146513935 1031.14206933174)
(1133.07823876765 -282.62709314586 1124.76713804799)
(1735.8730180602 -215.579496667722 508.926676206175)
(1414.78742009336 83.5164859212982 1055.97847538616)
(1591.66264318744 -345.005486823875 701.830747828641)
(1326.71148503524 -401.992276799822 420.324433107939)
(1479.08689752933 -28.2171600590948 659.800672892777)
(1378.66998387179 -599.787259785226 344.737905003369)
(1591.6620616908 -120.766499578652 878.323829836739)
(1154.69330818609 -284.554502269841 1085.99286413546)
(1115.05113163225 -142.290073300057 526.46726075261)
(1024.51974551548 -456.815115680347 876.778349008897)
(1408.81366125655 -294.220530269678 981.46403798888)
(1514.40910078009 -448.190776606823 667.722335558516)
(1472.9743854887 -17.9925925135706 1316.30972129644)
(1033.76988259226 -597.334912602447 1262.70261501341)
(1412.53501134767 -83.185122043238 395.586039252008)
(1012.3407018942 52.6375368224438 987.979626946153)
(1096.91164739627 -225.415094188219 1019.05330981158)
(1762.71374258085 -262.861427790276 1090.68455875882)
(1196.24084922188 -327.936073016044 924.278188778165)
(1188.77317231689 -230.971490040035 1279.94760085165)
(941.389406807097 -602.923398899057 900.712352036221)
(1420.82507373045 -641.312920739898 442.943178533001)
(1719.03296322616 -103.008957219826 894.594685185788)
(1688.59433139947 -339.674400166094 701.27183590831)
(1210.7566366606 -401.284600338937 1474.36317644254)
(1573.03575846536 -175.530388048067 412.958989874311)
(1619.22803570162 203.576223063414 1172.91131105408)
(990.817428144485 -569.17285829546 953.234341273374)
(1083.59334188554 208.590502504472 564.13459717323)
(1335.64667890591 -809.992022364795 784.3376795488)
(758.829933198532 74.2659725200669 893.309123342597)
(1625.28167537194 -367.755292309736 1004.85071032816)
(1259.8027391867 -251.812679902013 1045.32294103197)
(1418.72328629721 -146.879630374032 961.26508415206)
(735.951690777871 -439.206114591635 899.115733739757)
(1426.62495146194 24.051646035738 620.877871563322)
(1271.02499238915 -499.898504444463 648.01752107938)
(1110.13515695024 -106.471607285449 677.739030073363)
(1635.14970050508 -606.864291163753 900.721461671455)
(1445.97998923371 -786.443340260316 846.830887232587)
(820.760174164528 15.2284215331816 1048.33807019987)
(1269.31417735168 -383.396746413393 657.044580374755)
(1179.24867952199 -379.494693132502 684.742647387033)
(1134.40307935812 17.9102864755119 618.225168038198)
(1353.2412133151 -626.334507376109 885.667392190923)
(1149.1981579918 -604.702058873929 565.838762173361)
(1652.73413134332 -689.971364476088 950.838744381989)
(1585.75764970142 -297.489752237979 465.123268549239)
(1208.58017721202 -237.164727131059 1219.56161809855)
(1545.70436194105 -429.752954319771 944.872818459037)
(1215.97453585361 478.053758071819 635.816106217464)
(1269.30347330571 -96.454756294679 947.027244941616)
(1509.11164508288 -542.732459953625 761.675631845182)
(1679.74219090976 -481.797252306554 818.754541751253)
(1396.79316480824 -566.579279281184 583.225123255618)
(790.96496238164 -595.341875989157 409.033617861835)
(914.376088694748 -410.672882830012 791.993285318042)
(1653.09611106516 -774.050982138111 666.149305843004)
(1737.56202256028 387.338367395466 629.210540873923)
(537.943600608727 349.590120217074 765.721387321531)
(1472.89402697898 -218.668869752904 562.966878975229)
(1448.39331115153 -824.470708243148 1048.57842415788)
(1214.48157425661 -553.260341633053 612.826691673647)
(804.387824824656 -250.44463312611 608.543763910628)
(1188.98340753046 -351.648515980962 958.997169508915)
(1192.88269470108 226.337314934447 399.724681758168)
(1598.17649186599 -204.343039301242 1138.67069500134)
(1620.61986918226 -714.017673684803 729.015541602165)
(1114.58944504158 -960.369793861288 1260.90382067266)
(1036.1945930948 -235.039421294118 930.140032007058)
(1391.25968752413 -653.741548990936 1097.94937107891)
(1280.07502981697 -32.8284870206452 951.042487636036)
(1554.1731867863 -299.89625175382 740.073367719878)
(1296.16599718242 -772.520595663168 495.207609329788)
(1129.65054640048 -347.32724430634 1147.0365763808)
(1706.8780147451 -354.50711888909 231.877540742669)
(699.270362337323 -499.291430026165 876.483685154588)
(1165.80677948261 -197.737553064196 1219.43503129332)
(1344.84086024842 -343.393401190015 61.8525115747775)
(1007.13984186051 -172.216888494167 749.583396949324)
(1155.97976215739 -111.22578823457 1110.42575400696)
(915.701051647792 253.716264878059 1410.35975648236)
(1030.0521632302 -126.72102338987 625.602874991609)
(791.985830392566 -282.914187894289 275.008488480498)
(1202.04101883333 -184.443971191886 604.793946242401)
(1416.947705605 -360.417463248454 961.782562606416)
(1092.15077259602 -403.854568262484 968.102603336798)
(933.841795941278 -59.8527982668869 540.772644029458)
(1107.20967998762 -352.849468210771 1159.12735905177)
(1010.74542558342 -750.260773505967 845.000858838075)
(1309.84027326659 -421.151818387066 964.9860397597)
(776.058857196206 -375.023613864448 1263.76172404841)
(1135.83657063478 -407.324375306058 473.838798375414)
(1573.59981761211 -179.727731709363 1098.27813797719)
(856.653538959903 -335.658093644678 922.542078110056)
(1951.55324547234 -198.813138618712 658.460418304734)
(1588.59799307642 -119.189281144274 749.335357039638)
(966.654221044028 -521.599634580222 464.73875661007)
(1630.03957889275 -487.784337503197 973.3689453821)
(1309.85787851845 -623.608313501442 644.131568082832)
(1371.5056272612 -162.941613090723 903.688119266818)
(764.220057565844 -456.243878979566 775.523419502806)
(1069.3453685039 30.6310017022116 844.580938332311)
(737.944376012749 -350.409046372963 663.215417400819)
(1004.13493634099 -351.523021656509 1238.76044392962)
(1535.80842356194 -478.146376299531 979.618722259611)
(1553.19642484036 -505.569262987245 648.560650964471)
(1216.57705738202 -613.951413798255 625.589648835242)
(1408.4336212481 -48.1040214263417 622.310999403071)
(1203.0485504097 -451.947058826033 789.807688230153)
(1317.06059934757 -627.114667434816 1373.53821320558)
(1302.82802640087 -786.072027734665 924.220110691048)
(1195.02201599405 -503.694390094444 462.156677947352)
(1586.24356706856 -151.413333051869 1205.25649654614)
(1099.26740183675 -308.232642329724 870.213861381054)
(1262.42335061032 -328.892887231678 762.666698549882)
(1477.17908958846 12.9462594503605 812.725799225875)
(1373.66726769126 -747.606604442796 924.093833773808)
(965.534312038868 -675.274386108436 577.736850245476)
(1681.07333719358 -96.9526125845452 491.303214972518)
(993.866615594675 -50.9294904499973 723.134793484019)
(1774.07974296623 -394.26133926419 1278.97933439704)
(791.753306988516 -767.844461750277 403.332215117435)
(1055.94090816834 -334.735818183684 1241.03751671063)
(1243.5426728767 -250.360662847168 1266.80768566855)
(1390.90217270874 -528.72264926112 826.531734799347)
(1461.43543752222 65.2091134343173 1207.00887169966)
(1520.7529603937 -182.972108905485 792.685227928788)