/*--------------------------------*- C++ -*----------------------------------*\
| =========                 |                                                 |
| \\      /  F ield         | OpenFOAM: The Open Source CFD Toolbox           |
|  \\    /   O peration     |                                                 |
\*---------------------------------------------------------------------------*/

FoamFile
{
    version     2.0;
    format      ascii;
    class       dictionary;
    location    "system";
    object      blockMeshDict;
}

// * * * * * * * * * * * * * * * * * * * * * * * * * * * * * * * * * * * * * //

convertToMeters 0.001;

vertices (
    (0 0 0)
    (10 0 0)
    (10 10 0)
    (0 10 0)
    (0 0 1)
    (10 0 1)
    (10 10 1)
    (0 10 1)
);

blocks (
    hex (0 1 2 3 4 5 6 7) (20 20 1) simpleGrading (1 1 1)
);

boundary (
    inlet  { type patch; faces ((0 4 7 3)); }
    outlet { type patch; faces ((1 2 6 5)); }
    top    { type wall;  faces ((2 3 7 6)); }
    bottom { type wall;  faces ((0 1 5 4)); }
    front  { type wall;  faces ((3 2 1 0)); }
    back   { type wall;  faces ((4 5 6 7)); }
);

mergePatchPairs ();
