/*--------------------------------*- C++ -*----------------------------------*\
| =========                 |                                                 |
| \\      /  F ield         | OpenFOAM: The Open Source CFD Toolbox           |
|  \\    /   O peration     | Version:  2406                                  |
|   \\  /    A nd           | Website:  www.openfoam.com                      |
|    \\/     M anipulation  |                                                 |
\*---------------------------------------------------------------------------*/
FoamFile
{
    version     2.0;
    format      ascii;
    arch        "LSB;label=32;scalar=64";
    class       polyBoundaryMesh;
    location    "constant/polyMesh";
    object      boundary;
}
// * * * * * * * * * * * * * * * * * * * * * * * * * * * * * * * * * * * * * //

5
(
    flow
    {
        type            patch;
        nFaces          15;
        startFace       1041;
    }
    obstacle
    {
        type            wall;
        inGroups        1(wall);
        nFaces          30;
        startFace       1056;
    }
    frontAndBack
    {
        type            empty;
        inGroups        1(empty);
        nFaces          1092;
        startFace       1086;
    }
    procBoundary1to0
    {
        type            processor;
        inGroups        1(processor);
        nFaces          21;
        startFace       2178;
        matchTolerance  0.0001;
        transform       unknown;
        myProcNo        1;
        neighbProcNo    0;
    }
    procBoundary1to3
    {
        type            processor;
        inGroups        1(processor);
        nFaces          36;
        startFace       2199;
        matchTolerance  0.0001;
        transform       unknown;
        myProcNo        1;
        neighbProcNo    3;
    }
)

// ************************************************************************* //
