/*--------------------------------*- C++ -*----------------------------------*\
| =========                 |                                                 |
| \\      /  F ield         | OpenFOAM: The Open Source CFD Toolbox           |
|  \\    /   O peration     | Version:  2406                                  |
|   \\  /    A nd           | Website:  www.openfoam.com                      |
|    \\/     M anipulation  |                                                 |
\*---------------------------------------------------------------------------*/
FoamFile
{
    version     2.0;
    format      ascii;
    arch        "LSB;label=32;scalar=64";
    class       polyBoundaryMesh;
    location    "constant/polyMesh";
    object      boundary;
}
// * * * * * * * * * * * * * * * * * * * * * * * * * * * * * * * * * * * * * //

5
(
    flow
    {
        type            patch;
        nFaces          55;
        startFace       1253;
    }
    obstacle
    {
        type            wall;
        inGroups        1(wall);
        nFaces          0;
        startFace       1308;
    }
    frontAndBack
    {
        type            empty;
        inGroups        1(empty);
        nFaces          1308;
        startFace       1308;
    }
    procBoundary3to1
    {
        type            processor;
        inGroups        1(processor);
        nFaces          36;
        startFace       2616;
        matchTolerance  0.0001;
        transform       unknown;
        myProcNo        3;
        neighbProcNo    1;
    }
    procBoundary3to2
    {
        type            processor;
        inGroups        1(processor);
        nFaces          19;
        startFace       2652;
        matchTolerance  0.0001;
        transform       unknown;
        myProcNo        3;
        neighbProcNo    2;
    }
)

// ************************************************************************* //
