FoamFile
{
    version     2.0;
    format      ascii;
    class       dictionary;
    location    "system";
    object      blockMeshDict;
}

convertToMeters 1.0;

vertices
(
    (0 0 0)        (20 0 0)
    (0 20 0)       (20 20 0)
    (0 0 10)       (20 0 10)
    (0 20 10)      (20 20 10)
);

blocks
(
    hex (0 1 3 2 4 5 7 6) (40 40 20) simpleGrading (1 1 1)
);

edges
(
);

boundary
(
    inlet
    {
        type patch;
        faces
        (
            (0 4 6 2)
        );
    }
    outlet
    {
        type patch;
        faces
        (
            (1 3 7 5)
        );
    }
    walls
    {
        type wall;
        faces
        (
            (0 1 5 4)
            (2 3 7 6)
            (0 2 3 1)
        );
    }
);

mergePatchPairs ();
