
FoamFile
{
    version     2.0;
    format      ascii;
    class       dictionary;
    object      fvSolution;
}

solvers
{}

SIMPLE
{
    nNonOrthogonalCorrectors 0;
}

relaxationFactors
{}
