/*--------------------------------*- C++ -*----------------------------------*\
| =========                 |                                                 |
| \\      /  F ield         | OpenFOAM: The Open Source CFD Toolbox           |
|  \\    /   O peration     | Version:  2406                                  |
|   \\  /    A nd           | Website:  www.openfoam.com                      |
|    \\/     M anipulation  |                                                 |
\*---------------------------------------------------------------------------*/
FoamFile
{
    version     2.0;
    format      ascii;
    arch        "LSB;label=32;scalar=64";
    class       Cloud<dsmcParcel>;
    location    "0/lagrangian/dsmc";
    object      coordinates;
}
// * * * * * * * * * * * * * * * * * * * * * * * * * * * * * * * * * * * * * //

5157
(
(0.14502067545262 0.233769700014207 0.608630717500893 0.0125789070322797) 0 0 2
(0.367513754141765 0.00878959155433165 0.177247606044485 0.446449048259418) 0 1253 1
(0.112809031837462 0.319624328579406 0.488061910185562 0.0795047293975703) 0 2591 1
(0.0349810844520795 0.737225930635956 0.170277918945418 0.0575150659665465) 0 2616 2
(0.394286799369501 0.197901234833191 0.394082642349047 0.0137293234482615) 0 2620 2
(0.631390978732809 0.0333588602886399 0.286298929273416 0.0489512317051347) 1 1 1
(0.230146695585218 0.140108987061043 0.080901626995639 0.5488426903581) 1 1 2
(0.312447818594584 0.109115597794804 0.275533896977528 0.302902686633085) 1 2 2
(0.246610308247883 0.243652586812308 0.12671317214252 0.383023932797289) 1 1841 1
(0.434535832683775 0.282063319704053 0.0216440312010588 0.261756816411114) 1 2495 2
(0.641928009735712 0.275182912118239 0.00651129299124032 0.0763777851548081) 1 2617 2
(0.291735722837601 0.0499086389845743 0.397229532797237 0.261126105380588) 1 2627 2
(0.0873514362967671 0.271356624892532 0.366303844805454 0.274988094005246) 2 3 2
(0.667594100343176 0.00728729743566929 0.209968614781822 0.115149987439332) 2 4 1
(0.670575198115871 0.0527706513362174 0.183193364037095 0.0934607865108159) 2 2519 1
(0.0934807690836501 0.326828995543754 0.132094874292348 0.447595361080248) 2 2519 2
(0.188353566306595 0.263942618309184 0.317854452834399 0.229849362549822) 2 2618 1
(0.247628940609799 0.410270206516743 0.249122892839714 0.0929779600337438) 3 6 1
(0.45468240321866 0.245979768172042 0.199311131720482 0.100026696888817) 3 6 2
(0.100706885314464 0.0324145831080273 0.271322274426897 0.595556257150611) 3 1889 1
(0.195242738818462 0.0507300212245698 0.522933597289652 0.231093642667316) 3 1889 2
(0.0984624187369192 0.0986132192217966 0.562104458260271 0.240819903781013) 3 1889 2
(0.296555687563246 0.0161128367908033 0.208890953140027 0.478440522505924) 3 2543 1
(0.223218623425794 0.106718082080074 0.39493446121075 0.275128833283382) 3 2543 2
(0.331743237485625 0.231859257169197 0.0840160241897592 0.352381481155419) 3 2543 2
(0.00497933589840382 0.126519394652417 0.205400265443292 0.663101004005887) 3 3 1
(0.192079419923384 0.444982659638301 0.00277528835256366 0.360162632085751) 4 8 2
(0.0195978118111634 0.0977647427420339 0.0689424411907757 0.813695004256027) 4 8 2
(0.641007812012292 0.173312086579058 0.0707338528318184 0.114946248576831) 4 1913 2
(0.0413990622773461 0.53409700200262 0.224233729527536 0.200270206192498) 4 2621 1
(0.191323633185344 0.19895799436293 0.367526179213083 0.242192193238643) 4 2621 2
(0.380995939981594 0.0521137335459542 0.404547263696105 0.162343062776347) 4 5 1
(0.339585852096869 0.596278943665778 0.00203130045585007 0.0621039037815038) 5 9 2
(0.0284586372119966 0.577013003041009 0.21945391778367 0.175074441963324) 5 1254 1
(0.442643521950773 0.00154022643907117 0.226590188061962 0.329226063548194) 5 1254 2
(0.124252053874112 0.619550500677463 0.165129473622094 0.0910679718263306) 5 1254 2
(0.340989929577994 0.00701924677867885 0.448839125368735 0.203151698274593) 5 1938 1
(0.0162587390312876 0.392711096334828 0.385901354909818 0.205128809724066) 5 1938 2
(0.563847532043388 0.242361189466593 0.0437775765944859 0.150013701895533) 5 2592 1
(0.744115015559788 0.063430918179396 0.186719210559279 0.0057348557015369) 5 2592 1
(0.186629251282998 0.132201107431388 0.234651028098842 0.446518613186772) 5 2592 2
(0.0228203200116246 0.340884225384965 0.569804862282184 0.0664905923212259) 5 0 2
(0.151170204144023 0.204122232554017 0.327537787531523 0.317169775770438) 6 11 1
(0.313669981697996 0.296773781276632 0.359790869013883 0.0297653680114893) 6 11 2
(0.0163464875139279 0.607190512940745 0.0257744017719182 0.350688597773409) 6 11 2
(0.289014073632994 0.0323964326898115 0.0596088176894375 0.618980675987757) 6 1703 1
(0.051794075221411 0.0126088201078495 0.636301986353705 0.299295118317035) 6 2357 1
(0.238611775990078 0.261075513946284 0.281743517128231 0.218569192935406) 6 2357 2
(0.179086916195943 0.206614086874535 0.102189038545413 0.512109958384109) 6 2622 2
(0.159156264333183 0.369546632269623 0.223585459265276 0.247711644131918) 6 2633 1
(0.389020884636543 0.192531207173387 0.329050373696261 0.089397534493809) 6 2633 2
(0.427492801906117 0.0851242086511539 0.0326919613129104 0.454691028129819) 6 2633 2
(0.570241442846953 0.173856113370998 0.121090979220267 0.134811464561782) 7 12 1
(0.0130695754442639 0.301494640281482 0.22760672329584 0.457829060978414) 7 12 2
(0.454498702291135 0.43001104700057 0.077382840286685 0.0381074104216095) 7 13 2
(0.260980065394617 0.310064576503947 0.320206388072878 0.108748970028558) 7 1726 2
(0.644137373139905 0.0423871725386222 0.235539288932057 0.0779361653894155) 7 2380 1
(0.0855017557722793 0.577076497035593 0.184344275745651 0.153077471446476) 7 2380 2
(0.128606933054318 0.0625930569915675 0.227532209394738 0.581267800559376) 7 10 2
(0.0508046445917055 0.855064334021377 0.0283166835540525 0.0658143378328653) 8 15 2
(0.464396960099346 0.0490814803518727 0.404062572842423 0.0824589867063578) 8 1749 1
(0.22704636382284 0.169574341123305 0.339851606653225 0.26352768840063) 8 1749 2
(0.536096222196891 0.000474723544170475 0.460047883685006 0.00338117057393272) 8 2403 1
(0.00198026410382879 0.836993477795245 0.158729748487376 0.00229650961355029) 8 2403 2
(0.580743432782846 0.129277528187391 0.0213705096744064 0.268608529355357) 8 2624 2
(0.341913251312748 0.0587561175836749 0.364806035277567 0.23452459582601) 9 16 2
(0.197773763331835 0.145657991513127 0.350740773030364 0.305827472124675) 9 17 1
(0.25565712352603 0.567164362615101 0.0719661060633932 0.105212407795476) 9 17 2
(0.370561394880754 0.0402078332403673 0.113612431188617 0.475618340690261) 9 1772 1
(0.425373921058128 0.0463773129279825 0.247121019725348 0.281127746288542) 9 2426 1
(0.0596048272789016 0.0841139084879886 0.779157615932613 0.0771236483004971) 9 2426 2
(0.556951737197588 0.0465010749526116 0.182034749961775 0.214512437888026) 9 14 1
(0.029567147990437 0.537065604531341 0.158026766985768 0.275340480492454) 10 18 1
(0.518576648262408 0.0352363695951255 0.378056043346663 0.068130938795804) 10 18 2
(0.350477767668514 0.0602414760154175 0.0106800139534181 0.57860074236265) 10 1795 2
(0.0701072296081544 0.864243536788069 0.0347051725340216 0.0309440610697548) 10 2449 2
(0.115014321059353 0.122630723439981 0.0608675763425103 0.701487379158155) 10 2626 2
(0.155030720480762 0.482103912742447 0.270844683383768 0.0920206833930222) 11 20 1
(0.337856930773322 0.0118570498826196 0.526276138214307 0.124009881129751) 11 20 1
(0.132315916143898 0.0874176267276517 0.194513846843701 0.585752610284749) 11 20 2
(0.111562467257006 0.341664820894891 0.274207506716033 0.272565205132069) 11 21 1
(0.171233147586884 0.171698760340171 0.636281774449933 0.0207863176230125) 11 21 2
(0.189327266048141 0.119500524901773 0.624796318433668 0.0663758906164182) 11 1818 2
(0.226472526702007 0.188340458608328 0.0106934898007194 0.574493524888946) 11 2472 2
(0.415820691912876 0.189574965405062 0.000151763139555968 0.394452579542507) 11 2628 1
(0.215064147016967 0.610390543914046 0.00696271082480104 0.167582598244186) 11 2628 1
(0.0734343659324883 0.461302860802531 0.332471683656998 0.132791089607983) 11 18 2
(0.700240311929491 0.14856258441214 0.104384783686283 0.046812319972086) 12 22 1
(0.320892344460264 0.294813326552344 0.310492366091909 0.0738019628954836) 12 22 2
(0.198794169443026 0.0636758395822253 0.0748776843548576 0.662652306619891) 12 23 1
(0.442865827661351 0.0786516523783056 0.115504649106082 0.362977870854261) 12 2 1
(0.358589779916752 0.207503060739341 0.000693696871641058 0.433213462472265) 12 2 2
(0.288611241181614 0.0749065045393967 0.335031106691546 0.301451147587444) 12 20 1
(0.447950683410704 0.0902763537526472 0.282319310557053 0.179453652279596) 13 25 1
(0.0193195465557637 0.21420397146216 0.526153629170692 0.240322852811385) 13 25 2
(0.127576124733138 0.665226721177963 0.183303524858026 0.0238936292308733) 13 25 2
(0.0676478028175976 0.343078654199595 0.295980279620287 0.29329326336252) 13 1866 2
(0.151177217178349 0.215687658786755 0.16945515485056 0.463679969184336) 13 1866 2
(0.133648880865564 0.533578127739128 0.0948560234641995 0.237916967931108) 13 2520 1
(0.0756458896201407 0.597761841736552 0.263427260372487 0.0631650082708202) 13 2520 2
(0.149745855850185 0.332060902088293 0.0167162442752584 0.501476997786264) 13 22 1
(0.264975189316416 0.34815182550747 0.0793410799480339 0.30753190522808) 13 22 2
(0.0413031719396791 0.118988020835114 0.643635266082973 0.196073541142235) 14 26 2
(0.201993780633663 0.162327650441673 0.0648799376587289 0.570798631265935) 14 27 2
(0.174684038192265 0.0283104592563931 0.436688131628135 0.360317370923207) 14 1890 1
(0.257119795124567 0.286852598279461 0.0590257344609436 0.397001872135028) 14 6 2
(0.240518936433789 0.654541777160334 0.0575881437296399 0.047351142676237) 15 28 2
(0.173474087892006 0.249934705167705 0.263537449361567 0.313053757578723) 15 1914 1
(0.519896506515124 0.115828777219699 0.0184132875468521 0.345861428718325) 15 2568 2
(0.186609660460604 0.134231296351442 0.0425045373503429 0.63665450583761) 15 26 1
(0.0397874450440426 0.320771822619328 0.318812520862403 0.320628211474226) 16 30 1
(0.161068368553589 0.257167490391342 0.299457163146734 0.282306977908335) 16 1939 2
(0.306150893309258 0.463962258814302 0.111714755567492 0.118172092308947) 17 31 1
(0.356797616907511 0.185612610615927 0.258659459802528 0.198930312674034) 17 31 2
(0.424121522523432 0.0323894550223707 0.380423012556498 0.163066009897699) 17 32 2
(0.0457741073516542 0.0248170495194639 0.116323369622567 0.813085473506315) 17 1593 2
(0.0286798329956177 0.339398831508603 0.274295501783986 0.357625833711793) 17 2247 2
(0.666248056449701 0.137421071538298 0.111387606688945 0.0849432653230556) 17 2640 1
(0.082858657429429 0.324860709864665 0.532010948441352 0.0602696842645545) 17 2640 2
(0.512940470720076 0.055448308300298 0.348400290353192 0.0832109306264346) 18 33 1
(0.178104679376563 0.326982504079073 0.019863447823762 0.475049368720602) 18 33 2
(0.0170087982508099 0.0861445616348108 0.748607230519932 0.148239409594447) 18 33 2
(0.0773103544830471 0.0511338564472028 0.630767315634889 0.240788473434861) 18 34 1
(0.360470464359467 0.173376149760245 0.0255630186033586 0.44059036727693) 18 1615 1
(0.0218285897477886 0.0691306008848848 0.589252677895743 0.319788131471584) 18 1615 2
(0.0874482059374658 0.147436676302159 0.343244514789156 0.42187060297122) 18 1615 2
(0.277138542666214 0.214718886639413 0.371645103016651 0.136497467677723) 18 2269 1
(0.325782035481805 0.227807630966238 0.186702730851639 0.259707602700317) 18 2269 2
(0.163049060083802 0.0439014604556758 0.503235837767188 0.289813641693334) 18 2630 1
(0.44147212037944 0.042733722504421 0.395492203266991 0.120301953849148) 18 31 1
(0.172665776691354 0.483275292482488 0.29189054487047 0.0521683859556885) 19 35 2
(0.38121348702927 0.0166473652195321 0.289628592515346 0.312510555235853) 19 36 2
(0.319426509291266 0.0922449757548146 0.052637788223637 0.535690726730283) 19 36 2
(0.554274204616613 0.0830520857845329 0.207710154142566 0.154963555456289) 19 1637 2
(0.190239512326022 0.209877966395267 0.356132800055983 0.243749721222728) 19 2291 1
(0.0203749454575251 0.410332548984359 0.165835042496376 0.40345746306174) 19 2291 1
(0.00860996010623249 0.403205761901275 0.529395958437542 0.0587883195549508) 19 2631 1
(0.158403346270853 0.185077470534177 0.312616939319038 0.343902243875932) 19 2631 2
(0.0554183353516211 0.0104884701583028 0.743265700823375 0.190827493666701) 19 33 2
(0.0682617100492813 0.311152303428292 0.191377019561618 0.429208966960809) 20 37 1
(0.22106772274424 0.262542568438832 0.186032835181765 0.330356873635163) 20 38 2
(0.1176916930609 0.0141922122714046 0.67624244711197 0.191873647555726) 20 1659 1
(0.314813663396254 0.189090670540234 0.445603216389991 0.0504924496735212) 20 2313 2
(0.192849859626525 0.216188749122886 0.151377227410822 0.439584163839767) 20 2632 1
(0.0953007146284388 0.26475409547246 0.214880303100632 0.425064886798469) 20 2632 2
(0.154376557299868 0.0220651524709678 0.0696544519080131 0.753903838321151) 20 35 2
(0.0663687308622271 0.432319026969285 0.144857284041587 0.356454958126901) 21 39 1
(0.446630879494651 0.0606528745002996 0.456290967114509 0.0364252788905412) 21 39 2
(0.551916098061875 0.0621942348335286 0.229609949258275 0.156279717846322) 21 40 1
(0.281528863243659 0.126191141485953 0.392084472448764 0.200195522821625) 21 40 2
(0.6600198784117 0.233295017141379 0.0668514016017312 0.0398337028451896) 21 40 2
(0.384073238345117 0.169099945557601 0.293550416295981 0.153276399801302) 21 1681 1
(0.716256717116101 0.0394472871903304 0.107848177279041 0.136447818414528) 21 1681 1
(0.554816686888466 0.0205031785976548 0.317009925989441 0.107670208524438) 21 1681 2
(0.0959709082023348 0.816860117268047 0.0692107226005107 0.017958251929107) 21 2335 2
(0.190694998674039 0.230369804572601 0.182572514148791 0.39636268260457) 21 2634 2
(0.128739935648135 0.537755683425388 0.20825727996232 0.125247100964157) 21 37 1
(0.145592351892887 0.0859207060743541 0.0890492462185223 0.679437695814237) 21 37 2
(0.736465774311682 0.0199762721893105 0.188498547524843 0.0550594059741643) 21 37 2
(0.0420864403883445 0.615027624550383 0.107258447897674 0.235627487163599) 22 41 2
(0.213711637030818 0.239394124063286 0.255730651039375 0.291163587866521) 22 42 2
(0.396698495213601 0.556814939426673 0.00772578600369674 0.038760779356029) 22 1704 1
(0.00690738363696852 0.226770954599982 0.612109945384501 0.154211716378549) 22 1704 2
(0.233263165394638 0.529620543113688 0.201934241363909 0.035182050127766) 22 2358 1
(0.621296952538161 0.103882993010122 0.248878666360096 0.0259413880916203) 22 11 1
(0.0201370595283962 0.299724619953536 0.0118247985152718 0.668313522002796) 22 39 2
(0.0284475239681026 0.358002675081155 0.391205861248123 0.22234393970262) 23 43 2
(0.131448311272531 0.0512466083843495 0.133990737316449 0.68331434302667) 23 44 2
(0.109606125814093 0.507748715724312 0.117059645579304 0.265585512882291) 23 44 2
(0.315203635235074 0.0679993251412557 0.0118904477105235 0.604906591913147) 23 13 1
(0.474065827203238 0.372112618660521 0.14909576049445 0.00472579364179083) 23 13 2
(0.280767639006938 0.308730784656268 0.193488437735059 0.217013138601736) 23 41 1
(0.348405081066698 0.040836533179867 0.607619222851251 0.003139162902184) 23 41 2
(0.320968866919347 0.506622529313454 0.0222040178916535 0.150204585875545) 24 45 1
(0.214019992584322 0.473224997673147 0.297191995776055 0.015563013966476) 24 45 2
(0.140106010551542 0.144727614270105 0.368032932395676 0.347133442782677) 24 46 1
(0.18589885998862 0.0301722912654667 0.338251626985252 0.445677221760661) 24 46 1
(0.435506880824133 0.0638721003013345 0.424985529513729 0.0756354893608035) 24 1750 1
(0.115384888362707 0.446422906155532 0.141901636378964 0.296290569102798) 24 2404 1
(0.29611149333116 0.112208538257704 0.389730004336788 0.201949964074348) 24 2404 1
(0.570738221435921 0.227800821059508 0.0172178855754918 0.184243071929079) 24 15 1
(0.147418555229939 0.148229719447937 0.00915737357928748 0.695194351742836) 24 15 2
(0.0210865637222994 0.303260593351187 0.355495847702881 0.320156995223633) 25 47 2
(0.210930557575703 0.20167490514195 0.544719926423657 0.0426746108586901) 25 48 1
(0.00931713624926822 0.717835992645078 0.201345119344788 0.0715017517608665) 25 1773 2
(0.080363962112194 0.05829043274646 0.25344186900211 0.607903736139236) 25 2427 2
(0.327136429857854 0.100484065284047 0.411624962874298 0.160754541983801) 25 17 2
(0.151533652839848 0.348361080227513 0.137365727363575 0.362739539569064) 25 45 1
(0.499643834611645 0.0281353126308573 0.32226678126501 0.149954071492488) 26 49 2
(0.55595945530181 0.00394373006815756 0.199605964269633 0.2404908503604) 26 1796 1
(0.0224678194346072 0.100305136625695 0.540888228382391 0.336338815557306) 26 1796 1
(0.0214894049987142 0.194586500056135 0.049556073285904 0.734368021659247) 26 2450 2
(0.0966820718878295 0.134272615981586 0.608569714222017 0.160475597908568) 26 2450 2
(0.0783202073538149 0.61777267514296 0.284602093624965 0.0193050238782605) 26 19 1
(0.0661612067141041 0.0436469395040482 0.627186643952413 0.263005209829435) 26 19 2
(0.0226118490597181 0.205163278316346 0.337077254666228 0.435147617957707) 26 47 1
(0.0235341804389038 0.425431400347145 0.3148002319576 0.236234187256351) 26 47 2
(0.834174471015282 0.111606823324468 0.0336868242120757 0.0205318814481747) 27 52 2
(0.205327752371127 0.506561881046149 0.165614658031164 0.122495708551561) 27 1819 1
(0.212297506676145 0.59827973827352 0.0732578434175284 0.116164911632807) 27 1819 2
(0.024794196681145 0.270281277791811 0.35762640430257 0.347298121224475) 27 2473 1
(0.589311924235282 0.19306347934671 0.126784054857921 0.0908405415600866) 27 21 2
(0.0688575022232201 0.242824166750155 0.0186342799998776 0.669684051026747) 27 49 2
(0.67010517963924 0.0384781448345592 0.0510083049338951 0.240408370592306) 27 49 2
(0.673053038221077 0.0128111853828557 0.154655797938578 0.159479978457489) 28 53 2
(0.483505143292275 0.088625205663006 0.0861110153699027 0.341758635674817) 28 54 1
(0.0293047750284021 0.277108808565224 0.35511513538662 0.338471281019754) 28 1843 1
(0.727491464098521 0.0960058000161498 0.0230283375131657 0.153474398372164) 28 23 2
(0.0795240951025321 0.0648911070875846 0.0164489436833354 0.839135854126548) 28 51 1
(0.181610222423255 0.0432056491408813 0.0739073899760278 0.701276738459836) 28 51 2
(0.300024600555007 0.348129112009696 0.19106789148909 0.160778395946208) 29 55 1
(0.164537967218945 0.061082636602833 0.730191478576771 0.0441879176014509) 29 56 1
(0.0641542048699313 0.165421791233751 0.393153189477484 0.377270814418835) 29 1867 1
(0.0255633789112288 0.706555694361273 0.187397877128818 0.0804830495986801) 29 2521 1
(0.303941325830112 0.144675734935759 0.409128834480696 0.142254104753433) 29 2521 2
(0.0345125249990575 0.245981837037696 0.713908590182892 0.00559704778035473) 29 25 2
(0.559790111990935 0.013725221457505 0.0316114312220237 0.394873235329536) 29 53 1
(0.16958385174176 0.357982324384394 0.171828732609051 0.300605091264795) 30 57 2
(0.267943267895081 0.382828896337178 0.0478103096812084 0.301417526086532) 30 58 2
(0.457177576774585 0.0641917715122943 0.199268626716682 0.279362024996438) 30 1891 1
(0.695992460433007 0.191194430846182 0.0906469803858751 0.0221661283349359) 30 1891 2
(0.354827512395854 0.13813680523815 0.132710959643384 0.374324722722611) 30 55 2
(0.25586339124547 0.33442015481856 0.0819186232587234 0.327797830677246) 31 59 1
(0.173690220397733 0.313179707216865 0.223153065967865 0.289977006417537) 31 60 2
(0.424828867615334 0.0291521834843231 0.00527091313382793 0.540748035766515) 31 1915 1
(0.17872514514648 0.0425202601342777 0.135085232692636 0.643669362026606) 31 2569 1
(0.159207991118895 0.23217473407325 0.316549009010141 0.292068265797713) 31 2569 2
(0.0585320640286522 0.384470102464091 0.437587860845143 0.119409972662113) 31 57 1
(0.246025060323834 0.277054318172841 0.212816499101183 0.264104122402143) 32 61 1
(0.104073854378254 0.383869349918672 0.480832783064533 0.0312240126385405) 32 1256 1
(0.123996314295698 0.256944730584805 0.260917523637638 0.35814143148186) 32 1940 2
(0.0373057242729675 0.764524960623118 0.108891673315324 0.0892776417885905) 32 2594 2
(0.0921201091562225 0.357005520928092 0.286839357248527 0.264035012667158) 32 30 1
(0.0745044634557626 0.000201882831417211 0.103881072833394 0.821412580879426) 32 30 1
(0.100744208932519 0.530293301679592 0.0898963446662227 0.279066144721666) 32 30 2
(0.0311864631645636 0.0838506986673261 0.753864288731432 0.131098549436678) 32 59 1
(0.219639489652802 0.173463641188139 0.528411479962977 0.0784853891960828) 32 59 2
(0.467684880211106 0.129662744882745 0.224854141427787 0.177798233478362) 33 62 1
(0.289262496592685 0.0974655950781927 0.455730013059127 0.157541895269995) 33 62 1
(0.019976935459442 0.153346851232546 0.403301901861974 0.423374311446038) 33 62 2
(0.519826833560595 0.219702254985715 0.0772660377054982 0.183204873748191) 33 63 2
(0.00275623146214243 0.208481237177222 0.303458965425661 0.485303565934975) 33 1467 1
(0.075520837503652 0.130246910837919 0.247999793045666 0.546232458612763) 33 1467 2
(0.0292252588157644 0.414510184033509 0.228772099686613 0.327492457464113) 33 1467 2
(0.247839747165631 0.504074389071947 0.0297381731352058 0.218347690627216) 33 2121 2
(0.176219554409029 0.343218378118866 0.318109718123768 0.162452349348337) 33 2635 2
(0.177417759880037 0.31348169949955 0.381796447663215 0.127304092957198) 34 1488 1
(0.0485019935183487 0.417659597714671 0.077698616921125 0.456139791845856) 34 2142 1
(0.0951227458830135 0.047135084496379 0.0253139057601334 0.832428263860474) 34 2142 2
(0.66042336191464 0.110075306615518 0.18918644463384 0.0403148868360023) 34 2636 1
(0.33689488994993 0.218112345466788 0.128168335589395 0.316824428993887) 34 62 1
(0.59873131591129 0.151089197410734 0.160778895599817 0.0894005910781585) 35 66 2
(0.118754096763872 0.0765521093074582 0.242159199166339 0.562534594762331) 35 67 1
(0.438571754549541 0.0145100148631936 0.00688186906960293 0.540036361517663) 35 67 2
(0.33932048324682 0.373923425345221 0.282102236669601 0.00465385473835896) 35 67 2
(0.0701913493085331 0.628001627392757 0.10639016225517 0.195416861043539) 35 2163 2
(0.263296890204792 0.204471139867349 0.230419934305325 0.301812035622534) 35 2163 2
(0.161577968850323 0.469517905048443 0.242321834199623 0.126582291901611) 35 2637 1
(0.713823410137371 0.0273472505844958 0.0150520732438873 0.243777266034246) 35 2637 1
(0.0794122607423674 0.122140038757893 0.696725159876538 0.101722540623202) 36 68 2
(0.183308508345756 0.0115554096897782 0.0678167330842709 0.737319348880195) 36 69 2
(0.314116947280722 0.147137440061751 0.488232804825138 0.0505128078323893) 36 1530 1
(0.511462298836686 0.0283519370062485 0.349329148176484 0.110856615980581) 36 1530 2
(0.360315648909629 0.359469615023305 0.240995210520426 0.0392195255466408) 36 2184 2
(0.305028011625968 0.00428988391567531 0.479833324646656 0.210848779811701) 36 66 1
(0.00952149532353053 0.416088073524634 0.485838642271144 0.0885517888806913) 37 1551 2
(0.216733161036377 0.135247767954873 0.382474096004374 0.265544975004377) 37 2205 1
(0.29853204434514 0.0720058727497866 0.281152633895866 0.348309449009208) 37 2205 2
(0.484439283958291 0.00659896316854505 0.157199590612329 0.351762162260836) 37 2639 1
(0.121254054529277 0.129337277911638 0.208307886818625 0.54110078074046) 37 2639 2
(0.0661281621858245 0.032283809698552 0.693357512767629 0.208230515347995) 37 68 1
(0.585836019486997 0.0211859736099683 0.359673606404027 0.033304400499007) 37 68 2
(0.448670781942572 0.0541763764761315 0.0159898468754252 0.481162994705871) 38 72 1
(0.164596679281324 0.404223091490605 0.367352960933788 0.0638272682942826) 38 72 2
(0.202979171414781 0.569015275671054 0.0103497220328814 0.217655830881283) 38 73 1
(0.310994727429738 0.495524398665464 0.0791898719257268 0.114291001979071) 38 73 2
(0.586728346678135 0.238946647030859 0.112776723306822 0.0615482829841838) 38 1572 1
(0.00053729405091496 0.00327564278377206 0.159165990685773 0.83702107247954) 38 2641 2
(0.574084728255671 0.317280113694164 0.00772844416420396 0.10090671388596) 38 70 2
(0.374615442947676 0.0529243225622849 0.278744699267759 0.29371553522228) 39 1594 1
(0.0997100456014746 0.0370525527985473 0.360858177299544 0.502379224300435) 39 2248 2
(0.101409606335121 0.449726320820901 0.313154497847324 0.135709574996653) 39 32 2
(0.26629866014462 0.264494267180664 0.0542872040200032 0.414919868654713) 40 76 2
(0.323579123252739 0.123846045703567 0.0411158195695632 0.511459011474131) 40 77 2
(0.0412628477530148 0.769897407224253 0.121284150527781 0.0675555944949509) 40 1616 1
(0.00458799248499853 0.464857896009035 0.222274845785748 0.308279265720218) 40 1616 2
(0.181687425583769 0.0212635422366036 0.212915519087918 0.58413351309171) 40 2270 1
(0.444827533892662 0.321294532599464 0.225759853565844 0.00811807994202893) 40 34 2
(0.500022237486702 0.135717758473132 0.298730258234475 0.0655297458056916) 40 74 1
(0.0438125394907787 0.39318084036493 0.360353310733862 0.202653309410429) 40 74 1
(0.0889456403305657 0.103104474936278 0.344817462571295 0.463132422161861) 41 79 1
(0.0127047323662201 0.509654810936636 0.356250704949006 0.121389751748138) 41 79 1
(0.0298843790979355 0.619921585909116 0.156273618061115 0.193920416931834) 41 79 2
(0.0519281550503226 0.21732141303219 0.581943125973 0.148807305944488) 41 1638 1
(0.0606141958475874 0.402177464289972 0.49052554951839 0.0466827903440504) 41 1638 2
(0.104570349576828 0.167377571574638 0.680326730896828 0.0477253479517062) 41 2292 1
(0.0172377903840548 0.909918510236692 0.0449817199848744 0.0278619793943783) 41 36 1
(0.382728532437701 0.0343167603901398 0.29451154266322 0.28844316450894) 42 80 2
(0.466054902460078 0.0689951968387115 0.00967268253533735 0.455277218165873) 42 81 1
(0.215181158429871 0.546613022815486 0.0424391813478095 0.195766637406833) 42 81 2
(0.281868857589579 0.134169758596026 0.258053601420651 0.325907782393743) 42 1660 1
(0.144608700156313 0.647874951179422 0.00901276708791 0.198503581576355) 42 1660 2
(0.0246436795042682 0.494561671502338 0.465986528216375 0.0148081207770189) 42 38 1
(0.362401849437953 0.211387701336854 0.424712576576927 0.00149787264826577) 42 78 2
(0.407061922708415 0.216951407885273 0.156469016229209 0.219517653177103) 42 78 2
(0.348038679441901 0.0585836971373506 0.357187086329 0.236190537091749) 43 82 2
(0.118020057353802 0.182152845289121 0.0234554505159279 0.676371646841149) 43 82 2
(0.176662307837483 0.306727502710706 0.315701376909574 0.200908812542238) 43 83 2
(0.147341415720625 0.228270860309576 0.456757669325046 0.167630054644753) 43 1682 1
(0.000571407534681434 0.230549663657309 0.659308426369942 0.109570502438068) 43 1682 2
(0.190561385381947 0.0269150227125199 0.711331669783686 0.0711919221218469) 43 2336 1
(0.182799191847874 0.0533945732291885 0.690020894993622 0.0737853399293159) 43 2336 2
(0.746429047764934 0.177666889839721 0.000922077174941086 0.0749819852204032) 43 80 1
(0.272835972557959 0.162312035724564 0.123388595816417 0.441463395901061) 43 80 2
(0.342969021970406 0.0516943875648914 0.171444826351544 0.433891764113159) 44 84 1
(0.00398658695453447 0.431024111495867 0.0267029167030392 0.538286384846559) 44 85 1
(0.255543093609478 0.324371535505571 0.282623581208565 0.137461789676385) 44 85 2
(0.0414804958076089 0.0999973807458011 0.62942906537782 0.22909305806877) 44 1705 2
(0.0698837309529406 0.0882174993267102 0.177460997770869 0.66443777194948) 44 2359 1
(0.680521559528157 0.24459774993999 0.0704105843264712 0.00447010620538131) 44 82 1
(0.0620871597852626 0.550659572120052 0.365278081435436 0.0219751866592495) 44 82 2
(0.0666299961647232 0.184902713045752 0.263127758742166 0.485339532047359) 45 87 1
(0.254096008179003 0.136205844396807 0.12004459715243 0.48965355027176) 45 1728 1
(0.288279283847925 0.0272932500571953 0.179668742556324 0.504758723538555) 45 1728 2
(0.00758898961427401 0.153110338858163 0.499807975392889 0.339492696134674) 45 2382 1
(0.237597963727431 0.0411635849810297 0.330344995757276 0.390893455534263) 45 44 1
(0.208441239510204 0.345644135116768 0.119542735201539 0.326371890171489) 45 84 1
(0.0543382068620488 0.798793665682323 0.050115674418326 0.0967524530373024) 45 84 1
(0.305918612455683 0.216817800402411 0.288095249481487 0.189168337660419) 45 84 2
(0.126473984343694 0.791550581129442 0.0361073308697903 0.0458681036570736) 46 89 2
(0.182206397410672 0.562418338450123 0.234044808822865 0.0213304553163402) 46 89 2
(0.451701894500951 0.36627608717282 0.130970378341483 0.051051639984747) 46 2405 1
(0.0801605076761791 0.68943895460822 0.0324814299407581 0.197919107774843) 46 86 1
(0.162663343307584 0.0152956100858342 0.123345997491464 0.698695049115117) 47 90 1
(0.105038927268877 0.225706154296756 0.321195091424715 0.348059827009652) 47 90 2
(0.683959707737992 0.0142916586496437 0.238601390362853 0.0631472432495118) 47 91 1
(0.396893436864647 0.1706944245133 0.147026926943598 0.285385211678455) 47 91 2
(0.527033071558351 0.131414231039167 0.250754391606018 0.0907983057964644) 47 2428 1
(0.00619277641101146 0.016720185805245 0.54842755671695 0.428659481066794) 47 2428 2
(0.00101183739558097 0.30769449511982 0.241752756116118 0.449540911368481) 48 92 1
(0.334895572050403 0.239904153224641 0.00881554156867908 0.416384733156277) 48 92 2
(0.184220182463192 0.28752638210194 0.0463800083614256 0.481873427073442) 48 93 1
(0.546802665970445 0.424289642725748 0.0114885525813677 0.0174191387224387) 48 93 2
(0.157090959606247 0.697226514069625 0.133847057503849 0.0118354688202793) 48 1797 1
(0.61027781493044 0.118889199818451 0.0737384463556305 0.197094538895478) 48 50 1
(0.598394234721177 0.00792441849218508 0.0735210804402164 0.320160266346421) 48 90 1
(0.305523345065141 0.0500306233682028 0.644207200636283 0.000238830930373386) 49 94 1
(0.30770021672761 0.120479241879995 0.422552712417339 0.149267828975055) 49 95 1
(0.51558514997721 0.455780076231181 0.020669541300994 0.00796523249061512) 49 95 2