/*--------------------------------*- C++ -*----------------------------------*\
| =========                 |                                                 |
| \\      /  F ield         | OpenFOAM: The Open Source CFD Toolbox           |
|  \\    /   O peration     | Version:  2406                                  |
|   \\  /    A nd           | Website:  www.openfoam.com                      |
|    \\/     M anipulation  |                                                 |
\*---------------------------------------------------------------------------*/
FoamFile
{
    version     2.0;
    format      ascii;
    arch        "LSB;label=32;scalar=64";
    class       scalarField;
    location    "0/lagrangian/dsmc";
    object      Ei;
}
// * * * * * * * * * * * * * * * * * * * * * * * * * * * * * * * * * * * * * //


5157
(
3.66491798209532e-21
2.3717939266654e-22
6.35812058255096e-21
8.95313499116837e-22
2.17767186531736e-21
1.29849320717795e-24
8.56987921568294e-23
3.6552357613353e-21
2.14713552109429e-22
2.0739795730061e-21
1.89760120640857e-22
3.86210187608002e-21
3.56251436353563e-22
7.7478948802751e-21
1.11587513379476e-20
4.95581060214736e-21
1.48072034214028e-22
2.76843190467681e-21
1.91564845285334e-21
4.19250609480974e-22
1.24476584472322e-21
3.153520749666e-21
1.65134736963886e-21
2.06985777644474e-21
8.74080834513098e-21
1.96774393748615e-21
1.26960873339757e-20
1.84270897577621e-21
3.58279457289779e-21
3.73570648234129e-21
5.44710606970295e-21
3.76218868820394e-21
1.38691824944423e-22
3.65337008202387e-21
3.89572281664283e-21
7.24087394414178e-21
4.78488355545177e-21
8.40575355903017e-21
5.27298806900777e-22
2.67594374582699e-21
2.2100291301946e-21
3.70166376960862e-21
2.88711415872549e-21
6.04075626426249e-22
2.96181539079915e-21
2.83357361764687e-21
2.77276171200734e-21
5.50760700406481e-21
4.19845500426346e-21
6.0343946933967e-21
2.21661772359495e-21
2.85076835860881e-21
2.73772217414515e-21
8.3256764215237e-22
9.5816088925665e-22
5.70289922689536e-21
3.70631177517305e-21
1.23059253528741e-21
1.57702979955071e-21
7.86888575747776e-21
3.36953658990006e-21
2.80275062599679e-21
9.45173098953268e-21
7.76572664066673e-22
1.8269575715624e-21
5.47787044688788e-21
5.51456682492875e-22
2.49075704819415e-21
6.57618990118664e-21
1.01170835525091e-22
8.42517188511538e-21
2.72952151579704e-22
1.3752577751669e-21
1.60860870133326e-21
8.89449202423605e-22
1.75452802357405e-22
9.24902689671501e-22
1.00560954469458e-21
1.23285053196765e-21
8.63536062109717e-21
3.59260249523221e-21
7.49681001321384e-22
2.87086646841467e-21
5.47210337216682e-21
6.16569356342245e-21
3.32976961692176e-21
6.16440951826723e-22
1.62202719016837e-21
1.26755564825235e-21
6.41001322249487e-22
4.7541708031994e-21
1.63598013007595e-21
3.7988385317319e-21
5.60062900480936e-22
3.27729147656742e-21
2.14674877423876e-21
3.62125871418312e-21
1.29502288123753e-20
7.71889517446677e-22
6.70051082382363e-21
1.57337179231955e-21
5.13519046202623e-21
3.00515051304052e-21
6.47801899369375e-22
7.00426906540486e-21
8.0378526990107e-21
3.92141150738274e-21
5.71898095560871e-21
4.09708484831298e-21
3.17094267708636e-21
3.48644700819351e-21
1.78820166213305e-21
9.97116467212591e-21
3.35773294163861e-21
5.02107070898809e-21
1.56978481125637e-21
1.58467946998973e-21
1.04770194244294e-21
1.31500424656627e-21
4.02135540212247e-21
4.79774712401341e-21
6.00430375789656e-21
3.27755344641473e-21
4.81203367890093e-22
1.51748520226083e-21
6.60253196880666e-22
1.2449010849363e-21
1.22905418841245e-21
2.61125308192278e-21
5.80985569786128e-21
4.34164432050931e-21
1.14506373008307e-20
3.50987477050475e-21
2.1013003999214e-21
1.04215317891097e-21
7.05336730246575e-21
1.1738650647353e-21
2.99572295623354e-21
3.73284421840391e-21
3.23763161147281e-21
2.57086980787534e-21
3.63441912818926e-21
3.82359069099185e-21
8.74241482596381e-22
2.78287359437504e-21
8.36597195211634e-22
2.87028083849665e-21
1.52409059809411e-21
4.47743924884894e-21
6.1333603673546e-21
1.79714901439078e-22
3.03978964487386e-21
4.04036272249366e-22
7.52065122659696e-22
8.24059516595495e-22
3.39704564658625e-21
1.62131256428662e-21
1.04903801712006e-21
2.31148577782432e-21
9.21294815638687e-21
5.82843996919604e-21
1.10375933411665e-21
9.68187627592267e-21
6.27197357033426e-22
7.56415613972293e-22
1.21026407074728e-21
1.42276775341445e-21
2.73400697475464e-21
3.69141200185765e-21
1.23259274032659e-21
5.64697103708401e-21
3.25704404307091e-21
4.96696989179805e-21
2.94302204870154e-21
1.18070286414228e-21
4.88033725717932e-21
4.9546699147216e-21
7.30130400924712e-24
8.99557503567629e-22
2.88250393973055e-21
1.74177936902559e-20
2.52567954563294e-21
3.94796088417351e-21
9.82898886056197e-22
1.00481856529821e-21
1.22555822608024e-21
6.75299032184095e-21
9.13039035070154e-21
3.38016997199679e-21
3.63153031327257e-21
4.60754839684902e-21
3.20545279451639e-21
1.53091956341485e-20
1.20485543736797e-20
1.1309951851298e-20
5.20786084031514e-21
9.97119286944078e-21
1.08197245297369e-21
1.62717122831025e-21
5.08419125537177e-21
5.62073563387417e-21
2.98012481853873e-21
2.01186616980871e-21
1.55783194076306e-22
5.44345981083263e-21
3.36608543101877e-21
4.90407204992187e-21
1.81774181252708e-20
1.18425553888652e-21
4.18884418654037e-21
1.84893058945305e-22
2.08833605154119e-21
2.25819984049942e-22
4.30907540743416e-21
2.64889557286091e-21
1.92421421041019e-22
2.5590791611048e-21
7.48260669242254e-21
3.24078095579773e-21
7.12872709186584e-22
2.05538811348542e-21
2.69538644183012e-21
3.02261898814365e-21
3.28724890086495e-21
5.63076114150377e-21
9.30942796656808e-23
1.11501129521793e-21
5.39726005206288e-21
4.98871243528269e-21
2.78233601850892e-22
3.20731311168612e-21
1.34050742320168e-21
3.75072378500683e-21
1.06185730588561e-20
1.18354763059909e-21
2.06759874343016e-21
4.54613649903868e-21
1.98089902402656e-21
5.1931582985275e-21
2.23476324971387e-22
1.15973095110916e-20
8.87780164398748e-21
7.34534831890737e-21
4.00327564130772e-22
1.94851681401063e-20
1.74082516144439e-20
3.75989541870317e-21
2.15437587175979e-22
2.77615736518065e-22
1.01290989224821e-21
5.73887656064862e-21
2.49167853428392e-21
1.36758501761191e-21
2.78639820234968e-21
2.40650370314206e-21
6.50070317816976e-21
1.33513465986067e-20
1.45611491328585e-20
8.8592291321242e-21
6.78743431158021e-22
2.67241526977399e-23
2.2830402438849e-21
9.61314740605588e-21
7.97108952189107e-21
4.19212387821857e-22
2.0754972906037e-23
1.00644117784561e-21
8.19600406435659e-22
5.95234411711533e-21
1.27548903356918e-21
4.1021691095954e-21
3.25913431954485e-21
7.05967403745054e-21
8.32774743944798e-21
3.37058392524395e-21
1.91102094542934e-21
8.35164003306998e-21
8.31474343330786e-21
1.92480644174299e-20
1.33136223079415e-21
5.45292878219543e-21
6.8572977948713e-22
7.31839335099299e-21
3.64953957150319e-22
6.88520078367473e-21
8.19749012957258e-22
2.31731922446822e-21
4.83450778272834e-21
5.72857280723132e-21
5.28195993885391e-21
8.74370402486363e-21
9.93884328436894e-22
1.01370938649926e-22
6.00336124984168e-22
7.65443467778919e-21
8.99999469827763e-22
6.28370611178208e-21
2.30600466269668e-22
3.56104400042933e-22
1.29210347271675e-21
2.49280186034927e-21
6.31998600832874e-22
9.66612313908114e-23
1.05662351711859e-20
3.53647595149003e-22
6.78570992683011e-21
4.66889894744253e-21
1.30949270688794e-21
4.6679035637386e-21
9.27501281494946e-22
4.15366864068055e-22
3.68446394486818e-21
1.22568124272361e-21
2.01715912713935e-21
2.71385788279117e-21
7.56912631117857e-22
9.31344924962372e-22
1.30798476984333e-21
2.20221102584563e-21
3.04479856891361e-22
1.83847832281326e-21
2.33763762169987e-21
2.50776287054219e-21
7.8212131755868e-21
4.14556135888132e-22
2.07753868791911e-22
6.00461903649701e-22
5.37642733380115e-21
7.66602638109725e-21
3.5800004579967e-21
1.81346822970446e-21
2.05539140151074e-21
1.5132516439913e-21
5.80232205618019e-21
6.84809784339226e-21
4.12703327126272e-21
3.77350130951456e-21
1.82867675180217e-21
8.65820769860888e-21
5.59705735968161e-21
3.37977633613124e-21
3.83471143672374e-22
5.00501600274456e-21
2.41242858896923e-21
2.35089724606718e-21
1.05508362947476e-21
1.27883051872957e-21
2.59668856619441e-22
2.70970561614066e-21
3.14321272394805e-21
2.87664015553864e-21
2.01180743802959e-21
5.33611278785321e-21
1.77245440708861e-21
1.08466682267566e-20
7.07612327218477e-21
1.52391541592895e-21
5.38519076303683e-21
5.51550224449281e-22
4.49937807823944e-22
3.04347625451785e-21
6.55990611246307e-21
2.19788882321893e-21
2.80680541797315e-21
2.65627425079989e-21
1.9803074401669e-21
6.392901437792e-21
1.15743076453452e-21
2.25300199165784e-20
9.75575945675044e-21
2.0049993766341e-21
1.12548130444411e-20
2.05211490721044e-21
6.26983772818365e-21
1.89116853629202e-21
4.24502187099682e-21
5.92817474515473e-21
7.26699464734445e-21
1.58103681165724e-21
2.92826150803879e-21
2.48938934234789e-21
3.81590484726937e-22
1.78687775277792e-21
3.19619471350672e-21
3.42916738654918e-21
8.80713727794337e-21
2.0148970462219e-21
5.52020167486587e-21
3.85256316954617e-21
6.72654544948188e-21
6.93593601183908e-22
7.06600173660037e-22
2.76911459885246e-22
1.53676332693498e-21
1.33066375849851e-21
3.50757216049609e-21
2.05066142364029e-20
1.8536426834143e-21
6.34696992757423e-22
1.00940280425419e-21
3.15601731821669e-21
3.71638376206643e-21
9.68160801035949e-22
4.79409923645014e-21
1.48019026503303e-21
1.78795561661135e-22
3.15324625749752e-21
8.85241143782216e-22
7.41535293476395e-22
4.30446543260489e-22
1.90850976712446e-20
2.71854699447386e-21
3.62203079216436e-21
1.66373479556768e-20
6.47026519361987e-21
2.94323642904579e-21
4.12158639008024e-22
4.03609669650346e-22
1.24084703342346e-21
5.28072835966442e-22
4.37975049054218e-21
2.3495453569434e-22
5.37273684099745e-21
9.47830648419126e-21
3.27739712073676e-21
5.52008143011309e-21
5.98542830490993e-21
8.42503504631998e-21
1.14054326599399e-21
5.50815427504026e-21
7.19613262301524e-21
3.12254437184831e-21
8.01312046614962e-21
5.03213762095659e-22
1.43690212182592e-22
8.48780654349961e-21
4.15316576886587e-21
2.23163138484754e-22
3.86641692185078e-22
1.65310505365453e-21
1.44818435319982e-21
8.28184895834589e-22
2.31314822870753e-21
1.13789555615644e-21
2.81037695110487e-21
5.40541353611901e-21
2.82217571606943e-21
5.42196433480391e-21
6.05712407914198e-21
4.48665644558556e-21
2.38782030856607e-21
9.23783128162396e-22
9.96309377649561e-22
2.78008195348253e-20
2.20296947089251e-21
6.17972235196165e-21
1.12201183254724e-23
1.26193047210348e-21
6.06418512762873e-22
1.6597104367311e-21
2.70510956299821e-21
4.33405776596081e-21
3.76060740465332e-22
1.07954982645748e-20
4.70520499528376e-22
1.51154927476583e-21
4.85498387184191e-21
3.49461887366484e-22
6.99852464672243e-21
2.92534787831783e-21
1.97960463021076e-21
4.2103738592238e-21
4.03426016932639e-22
3.42045827639333e-21
3.62818435190797e-21
2.84432405089996e-21
1.80943540309966e-22
3.40154950945147e-21
3.34106178159398e-23
1.57374302973319e-22
2.51898722750811e-21
9.18999302813168e-22
4.49342400601047e-22
1.63856856317346e-21
1.13737846921403e-21
3.29587063240271e-21
1.47793904536551e-21
5.45379936143951e-21
1.11257076276012e-21
1.89226902150661e-21
1.86594744321855e-21
3.70490667902061e-21
4.31130777832283e-21
9.43595918644884e-22
1.18788579867968e-21
8.44924630092348e-22
8.76558945513524e-21
1.69690180800906e-21
1.10564101769864e-21
1.40323240924453e-21
2.76019231870008e-21
2.41580157098912e-21
4.78896360597611e-21
1.20367112960653e-21
4.46580153068727e-21
1.79414009206335e-20
3.52415965994025e-21
2.08592498867965e-22
6.33476139178176e-21
3.03420866154879e-22
2.08741899073849e-22
1.15306326570603e-20
2.35370196589963e-21
1.19282026653871e-20
4.52210402073624e-21
4.81553507848037e-22
4.00667330593249e-21
3.43809563777681e-21
2.98541381617408e-21
1.12474771517429e-21
7.0450361262573e-21
4.36965060266558e-22
1.71165059336107e-21
2.35954856054577e-21
1.38704017812283e-21
1.45869886056223e-22
4.52958174232126e-21
2.29429686626621e-21
2.66964643074748e-21
5.91821119284441e-21
1.26010954122758e-20
2.75526533526797e-22
2.89062340901993e-21
1.62431031705442e-20
1.0742084153903e-21
4.71887996316672e-21
2.74571354657836e-21
1.09350562578167e-21
6.77385379252629e-21
3.19095851619282e-21
4.73380844779059e-22
2.92311575985379e-21
1.27089513919154e-21
3.99562010115729e-21
7.94443450753291e-21
5.14182812406934e-21
2.16464926222161e-21
8.17783884290408e-21
2.99831386420945e-22
2.23817699081714e-21
4.62861637307708e-21
2.97653541379932e-21
1.02301425643594e-20
9.11819419904555e-21
3.65626563789764e-21
6.12204470646512e-22
6.32044869189994e-22
4.81131509555344e-21
4.75686245237591e-22
2.41635381956144e-21
1.99953615905715e-22
1.62229891974276e-22
9.1910184752436e-21
7.8012418924286e-22
2.85915861400308e-21
2.82536616433893e-22
3.60356124619845e-21
2.12343378996393e-21
6.10204691107167e-21
5.84403416797679e-21
9.08179021358145e-22
4.31682865333513e-22
1.30461644158886e-21
3.38663591705854e-21
1.81998783169933e-21
1.20772354532585e-20
3.05507463321309e-20
2.57363504406889e-21
1.40613051744224e-22
3.58475906379834e-21
3.25832853940325e-21
3.16954268265756e-21
1.03908232114558e-21
1.50725381175696e-20
5.3413700882727e-21
1.61998867972407e-21
4.02824621694593e-21
3.55941953988677e-21
2.78099715046706e-21
8.36872412068864e-21
2.47437091222883e-21
3.67529651707716e-21
2.77734313750922e-21
8.15124625121287e-22
3.42887475423418e-21
1.04204740458025e-20
1.87264448122652e-22
5.94998440807971e-22
5.29159629469973e-21
1.87447428926472e-20
1.58724561359481e-20
4.38257741053504e-21
2.67761871030221e-21
4.77455074614293e-21
5.63631522325568e-21
5.81335358516769e-22
1.08516848770335e-22
7.94042278887413e-22
9.09439676835517e-22
4.84752636679067e-21
8.48849740596836e-21
3.08571043614148e-21
1.67959782787641e-23
3.09252015231608e-21
1.78956252784209e-21
1.580063625745e-22
9.87762218704664e-22
2.86118591605906e-21
8.1697534660066e-21
7.79340439272132e-22
2.10312442138611e-23
2.51844116435356e-22
1.1581157534357e-20
4.699598595074e-21
1.50188740589255e-21
8.58096835779251e-21
1.23964484855123e-21
1.22177264358804e-20
2.33960251537869e-21
1.22087702028001e-20
1.70543206466256e-22
1.85855662271159e-21
1.04191703563748e-21
2.5445021969675e-21
1.50331164601387e-20
2.38008818648275e-22
1.01400846957554e-20
2.92964320769447e-22
1.85070475071464e-21
2.37656162211201e-21
1.54009509534568e-21
9.92054802236913e-22
1.76976184925986e-20
5.19330798026035e-21
3.75499709355821e-22
2.68036396846047e-21
6.14299663567297e-21
2.4780247755237e-21
1.25116525480384e-20
1.92730695447142e-21
6.57423446865988e-22
1.12391834059707e-22
1.96499917769727e-21
5.53815411403527e-22
8.93653076942817e-22
2.14138000843596e-21
6.28052155557796e-21
5.24768229865207e-21
5.69200638000669e-21
5.18668139996226e-21
2.55359351076203e-21
7.82792497647166e-22
3.02695012293435e-21
1.33837421378914e-20
5.74350744742918e-22
2.82531297945854e-21
2.38433103012875e-22
1.06625952076215e-22
1.90416879438854e-21
6.09147680608801e-22
7.11580413518854e-21
3.58727958778244e-21
4.52944850550256e-22
6.66798528133683e-22
3.68388585795326e-21
8.07918653167217e-22
1.54952128876249e-21
1.27127431228455e-20
1.99920764814413e-23
2.68532699228702e-21
1.28859225228654e-22
3.14951342086234e-21
1.09471580129414e-22
2.17457093121364e-21
4.72449800807409e-22
3.03576682625621e-21
2.8207911718862e-22
4.21290064291715e-21
4.35912755665092e-22
9.07625793093989e-21
4.26727726425586e-21
5.66444711090489e-21
1.47783792570248e-20
1.87663666762695e-22
5.10871886193288e-21
1.44426872259243e-21
1.70516769138061e-21
8.58878332520055e-21
8.56534425525605e-22
1.57085869172351e-21
2.92882631639332e-21
1.77491246917783e-21
7.39203511019156e-21
7.0867147794777e-24
8.08283733322901e-21
1.62656751146699e-21
9.31522333259829e-21
4.13109148282481e-21
1.50497445445562e-20
9.45593843456175e-22
9.8102519778338e-22
2.26951474184684e-20
2.78080698365228e-22
6.18832224490249e-22
3.77089178650867e-22
2.32824972709705e-22
2.05548563131416e-21
8.31223465152833e-21
5.30150708530017e-22
2.06046228603183e-21
4.93601491918513e-21
7.53673530487445e-23
5.14145430118209e-21
5.92360069195157e-21
4.16210384948425e-21
7.13465849099551e-22
8.83362651220692e-21
3.67772556937298e-21
1.03558559676012e-21
9.71604001226155e-22
1.12843413619159e-21
3.27618533377386e-21
2.30435091450884e-21
3.49798154810651e-21
3.67205266513576e-21
3.22573211940767e-21
2.53378967597564e-21
1.42575657558679e-22
5.97954582284326e-21
2.48202963113715e-21
4.72554371188943e-22
2.60680885558885e-21
3.52067239847916e-22
8.07961335272201e-21
7.25691999552455e-21
4.73283658814527e-21
1.77172773382502e-22
3.95550967697617e-21
1.39492483576352e-21
1.7074235811586e-21
2.98256692773809e-21
7.30661207298872e-21
1.50942898817786e-20
4.74885262388994e-21
9.61736149848251e-22
9.73354585856276e-22
6.65905247280154e-21
1.79108165337508e-21
1.17797665296642e-22
1.17327950083946e-20
8.13153588068816e-21
3.92533800520606e-21
7.09939837008223e-21
6.48199915198221e-21
1.22563576031873e-21
4.37745189321224e-21
1.79877937103799e-21
1.06652598786861e-21
3.61005092916018e-21
1.11305818849383e-22
1.26613292581321e-20
4.80459637707482e-22
6.14341687514561e-21
2.92041249879036e-21
1.22450237700262e-20
1.53648892196152e-21
8.791344372343e-21
7.81922571391725e-21
4.5157467893967e-21
1.61276482006215e-21
2.06740653193115e-21
1.45903175225883e-20
1.29763809536502e-21
5.2301526186087e-21
1.73931848947158e-21
6.46041447262703e-21
1.23628694586578e-21
3.30938453012655e-21
1.20575944727413e-20
9.98237400622525e-21
8.68602611684089e-22
1.52443497032444e-21
2.1214842121099e-21
6.49295538497858e-21
2.10249515237845e-21
2.32120298474815e-21
2.3778319508145e-22
6.72940826137907e-21
2.62073926743206e-21
2.13624050842515e-21
3.33031117320732e-21
2.50119186656008e-22
7.06303931011687e-22
5.03130224689841e-21
3.71197763008084e-21
1.67326679636317e-22
4.80295485370525e-21
6.82862539723651e-21
1.00766833022523e-20
4.04771874096846e-21
1.54581198079748e-21
2.83321499212689e-21
4.40377047146421e-22
1.30273969689187e-21
1.89983525075979e-21
4.75121722522e-21
1.33978873657858e-20
7.11738722270384e-22
9.26330341095026e-22
5.40856745902551e-21
4.28425938354731e-21
9.32596954790081e-21
8.79769800523908e-22
3.58401927093642e-21
3.4954013126813e-21
1.03925588898876e-20
4.80976723140632e-22
6.12981481171733e-22
1.85679355802283e-21
2.97384238388158e-21
6.76012900063036e-22
2.95948699530646e-21
6.7060721020378e-21
3.15270661405291e-21
6.65435540411548e-22
1.27343576486113e-21
5.87566206756043e-22
1.26943090760435e-22
1.22171636081647e-22
4.63460298173618e-21
2.64183685509353e-21
4.19807377600245e-21
1.25811479016259e-21
7.58383904881655e-21
5.03556542557356e-21
1.11713791236242e-21
3.58890134607665e-21
4.56423325853765e-21
2.25719940702388e-21
1.02566436697581e-20
4.0909978152058e-21
4.29740955509819e-22
1.9450166959629e-21
9.60937946895185e-22
1.41665558436269e-20
1.67808863127308e-20
2.88665307157216e-21
2.09895500997547e-21
1.36932906051324e-23
2.77793133882518e-21
5.77998748742257e-21
2.554335226559e-22
4.90266381891215e-21
2.56195360314691e-21
9.05251908719651e-21
2.41197496151737e-21
3.44018050597605e-21
3.12700076732274e-21
4.23525618321525e-22
1.56778359640557e-21
1.38397194977455e-20
2.45600765295768e-21
9.56846325994672e-22
2.99072757604636e-21
3.85615906544704e-22
3.84317705953291e-21
6.89995943702059e-21
3.43960070991453e-21
7.15405372206181e-22
3.12933523788286e-23
6.20978614072679e-21
5.11705013873484e-21
6.11573353368071e-21
7.0942493188039e-21
7.11633236933948e-21
1.81070605549134e-21
4.06467788979517e-21
7.03121289348293e-22
8.70783320313468e-22
3.78194918500301e-21
8.78902239054548e-22
3.17550908678045e-21
5.87393534628201e-21
1.4675020060189e-21
2.88099119241011e-21
1.92990074742398e-20
1.37178813119598e-20
2.38563535411879e-21
3.88602220698778e-22
4.99166708555666e-21
5.58418049497823e-22
1.25129986201486e-20
3.3749528534657e-21
2.0140341813919e-21
3.05828963260911e-21
2.54359859799443e-21
4.0797149009873e-21
6.47246911608116e-22
1.52898700325899e-21
2.55362362312371e-22
2.53509378039866e-21
3.72085361279145e-21
1.06844736381556e-20
8.2260087947041e-22
1.11712157503949e-20
3.51292985598776e-22
5.79192519770918e-21
4.21469666329947e-22
3.47025729957655e-22
6.87549435082459e-22
6.92863661319272e-21
5.22009321035433e-22
3.47013017718921e-21
1.58550870580108e-21
1.10934715002374e-20
5.11689095476541e-21
5.55270162532416e-21
3.98438865114578e-21
2.10572388597556e-21
1.84444233230864e-21
1.24842652058811e-21
7.94433213763863e-22
2.64521488534702e-21
1.05056458097337e-20
3.3171090401854e-21
5.91265985035689e-21
2.1822592919336e-21
1.0485054935889e-20
2.43600314204635e-21
3.05599439398278e-21
2.86317312647699e-22
8.95448748467424e-21
1.33629028400971e-21
2.77421721875696e-21
1.76392273052051e-20
6.84776867668517e-22
1.28760221869444e-21
4.51245298638757e-21
2.34624808572927e-21
5.5248807059176e-22
1.47595228146419e-21
8.72312175960648e-22
5.9555990379581e-22
1.05686772957593e-20
7.18244885300083e-22
5.59729406545401e-21
4.5116247035333e-22
5.2866089420393e-21
9.89785668745113e-22
4.98320853280743e-21
1.18758667466236e-21
8.1743829234242e-21
6.57871146052842e-21
1.03888466567927e-20
1.70856960441085e-21
1.1269008553526e-20
6.15953990873486e-21
2.03014318286451e-21
1.76223383280279e-22
2.89810178736059e-21
2.73318142946907e-21
6.1991352691511e-21
5.52040626908972e-21
5.01775549321238e-21
1.04520434409264e-20
1.16176613956806e-20
1.36184859947959e-21
2.13459949903272e-20
6.77769166005564e-21
3.91106899088345e-21
4.79414980054021e-21
3.76060389064351e-22
2.00764263080568e-21
4.01688112153901e-21
2.72942730542492e-21
2.98486846466276e-23
1.01049117719691e-20
3.82323075958624e-21
1.23827652002052e-21
6.17037589452754e-21
3.95418034151126e-22
1.0130398103722e-20
2.97351797718253e-21
2.90328835708709e-21
5.32817971668466e-21
4.19926788365555e-21
3.57136764428262e-21
3.1498721432995e-21
1.77570028205989e-21
6.12524503377259e-21
1.91652310514856e-21
2.95919582157927e-22
7.10509771318453e-21
8.90283978035649e-22
2.97375802812382e-21
1.04205557125836e-20
1.45792044004804e-22
3.73872902990472e-22
4.66813211140077e-21
4.7423817874755e-21
4.2338525418106e-21
7.76680233086451e-21
2.37693990349927e-21
4.34261040790906e-21
5.77301173570861e-21
3.98022575661586e-21
8.77463983906541e-22
7.71980087242313e-21
1.74116979360145e-23
7.27855106973248e-21
4.49089112633655e-21
8.29718756925674e-23
2.19233033770879e-21
1.35592596484379e-21
1.00711309872603e-20
3.22225062193557e-21
5.0506704747969e-21
1.30323428467237e-20
1.68789266983545e-21
3.91344828251739e-21
8.23512311853609e-22
9.20820727651184e-22
1.575465861578e-20
9.43783324498423e-22
1.25088333343086e-20
4.22020021300218e-21
5.57070696967344e-21
1.74162104112712e-21
2.53506631053062e-21
2.80610486365916e-21
1.73747366052979e-22
5.57338009085073e-21
7.53895419466049e-22
5.57515079099466e-21
3.86369053646872e-22
1.17329122049407e-21
5.57766419862035e-21
6.26226070321025e-21
1.25434950219624e-21
3.57910848185582e-22
5.62040500195418e-21
1.47933400066815e-22
4.13799682421904e-22
1.54101049403393e-20
4.86581622052934e-22
1.70206169494844e-23
3.67751451416782e-21
2.42896284830827e-21
1.24006677428916e-21
1.23147234724643e-21
1.07951026314261e-20
9.64083563567571e-21
4.6785312174264e-22
3.20384877161997e-21
1.8132357683188e-21
7.10664802061873e-21
9.39413138334792e-21
5.71885070437384e-21
1.36861512907661e-21
4.56725904803556e-21
2.03507357346698e-21
2.03257342432141e-21
5.55596844828252e-21
1.67974449986134e-21
2.57954153385639e-21
3.88184281177198e-21
2.67489259240334e-22
2.81614658888507e-21
2.01867786618029e-21
6.36276237707361e-22
4.35653525493836e-21
2.48666307600179e-21
5.26870898550913e-21
6.39570618161781e-22
6.20599548711221e-21
1.40528461690396e-21
6.97498291367258e-21
1.36530157718496e-21
2.50034821664184e-21
2.95132562713084e-21
5.89369128937966e-22
7.14499527140522e-22
6.38060983242119e-21
2.16225916310621e-21
3.51420312038574e-21
3.03743709870084e-21
9.62177354199277e-21
1.35637946002792e-20
1.01727312337234e-21
4.2319222512619e-22
7.63866153477296e-22
5.64127522923449e-21
1.04725315483657e-21
4.24677482777523e-21
3.73403376026409e-22
1.01670930972129e-20
2.9942150233272e-22
6.49940970290217e-21
3.29887182372703e-22
2.19810395046406e-20
9.07580554081251e-22
2.11005253952517e-21
2.69967663423515e-21
1.20556782748352e-21
9.64109332196121e-21
3.40653979497154e-21
1.99556543284776e-22
1.25606844019423e-21
1.97432289107865e-21
1.09076374756363e-21
1.24119019973656e-23
3.96793109155077e-21
3.47816763705587e-21
2.42952100517654e-21
5.0388435080054e-21
3.44663162476255e-21
1.33121124588236e-21
6.37561948721881e-22
1.16567120550496e-20
2.90053800060142e-21
1.9630802929551e-21
2.57555304487488e-21
7.99499041279807e-21
1.46837952044587e-20
6.21944123584927e-21
6.98984204657047e-21
6.24597727156559e-21
1.56280330706165e-21
1.65085362454484e-21
1.20487421623064e-20
2.97585945083281e-21
5.92089780389055e-21
1.09332961204044e-21
3.94711640260439e-21
1.1597157438978e-20
4.27656860026317e-22
3.23953737041466e-22
2.29279667906822e-22
8.33443246516044e-22
5.86764694374314e-21
1.68971089556618e-20
3.40819024515822e-21
6.09043735283254e-21
7.91050444490892e-22
1.19841206704487e-20
7.43641784366585e-21
1.11202908827678e-21
1.90457054040003e-21
2.15177932205558e-21
4.9892872239908e-21
3.90342236628904e-21
2.25750789122696e-21
5.68855583064543e-22
5.05925266039831e-21
8.77307487724173e-21
4.1495238932713e-21
3.55443422418286e-21
1.63207983379943e-21
1.33164675079388e-22
1.93119608843487e-21
5.36746528633003e-21
5.3752851868315e-21
5.93691039083284e-22
4.31006791855632e-21
3.91984931970245e-21
9.52563307517148e-21
2.88357092032484e-21
2.45766941016195e-20
2.92442325784426e-21
8.03353091695221e-21
2.32320162267713e-21
1.104544413082e-20
5.76525879044685e-21
3.42962653425832e-21
4.76676002237237e-21
1.20852374116714e-21
8.74656891782859e-22
2.51199003363602e-21
3.27406553865952e-21
4.02434619171746e-21
5.18941578558062e-21
3.41964387605478e-22
1.23152110777178e-22
1.21752574169882e-20
3.96372556668623e-22
5.93320684241808e-21
8.10715006948495e-21
2.00640210827875e-21
8.94680715529276e-21
2.84607001346746e-21
7.04662757069498e-21
1.87303283006974e-21
1.23243334175771e-20
5.70970017270924e-21
1.48611438345673e-20
6.13113716946416e-21
2.93879701637631e-21
2.73294451082779e-21
3.62345178072114e-21
1.20927933932527e-20
9.943625206383e-22
7.11951612083809e-22
3.17897014022921e-21
6.08207526026856e-23
1.43360505525385e-22
8.01920953160641e-21
7.90293930162223e-22
5.01675737667376e-21
2.23596824985333e-21
3.12366256120264e-21
3.65488705917942e-21
8.08550848992038e-21
2.71870984835972e-21
1.05620060655145e-20
1.2653950566807e-20
4.37029083921295e-21
9.63396460684393e-22
3.41926329766062e-21
6.31527056661532e-22
1.42903566382949e-21
6.9200377242078e-21
2.92589405378774e-21
3.05228369737377e-21
2.01482398072753e-20
1.01550497954721e-20
7.25219202924065e-21
5.01089815780998e-21
2.56228798193483e-21
2.20515536560225e-21
9.55741453604725e-23
2.94070731880859e-21
7.46280382740556e-22
4.78643189971325e-21
4.91905101278694e-21
2.85150261327408e-21
6.76454363700559e-21
1.18116442687971e-21
8.14402005336868e-22
1.34699867396978e-21
1.09392249075703e-20
7.25369437136436e-21
5.63547844566962e-21
1.02713487073776e-21
2.12706050111778e-20
1.00806858343429e-21
6.37243648973621e-22
7.59021593927753e-22
9.23725831498232e-22
1.76909957049096e-21
3.14950782051589e-21
3.31465380167107e-21
4.60131257206181e-21
4.04247024976058e-21
1.89463709927802e-21
2.46843452555802e-21
2.29982530541115e-22
1.285922716763e-22
1.4838602309689e-21
2.08710988598049e-21
4.16491456310479e-22
4.12800021774541e-21
1.39227600767157e-21
1.43570992890884e-21
8.54573345629447e-22
1.92955982958986e-21
5.42002137795573e-22
1.82785300187721e-20
7.03783911333791e-21
2.27421057601164e-21
2.9430309059296e-21
2.88019702594319e-21
2.65298756198945e-22
8.01210928310476e-21
1.32270077754286e-20
1.49750792471e-21
1.97065247186593e-20
3.28972238920934e-21
3.17966422756984e-21
1.77460159809402e-21
3.38447443093034e-21
9.96264470455668e-21
6.30571740839185e-22
3.54408775968606e-23
3.16320670438583e-23
6.06564933897645e-22
1.00007981580569e-20
3.12634182730166e-21
9.7838609601801e-21
2.09998105998948e-21
8.04723915320901e-22
4.0150397280404e-21
1.18841729471543e-21
3.40893070344614e-21
5.1882246980335e-21
1.41086323144859e-21
2.08373351651025e-21
6.09421790152772e-21
3.82305357939735e-21
3.81777250617161e-21
2.77829113586219e-21
8.33495210011202e-21
2.56406362351645e-22
2.80924159749988e-21
3.89243489185288e-21
1.23450670348174e-21
5.14708887385973e-21
6.32019999814856e-21
2.37846730756588e-20
2.01083354113039e-21
8.30071275713956e-22
6.34827966891782e-21
4.74993384521415e-21
2.02045869233598e-22
4.92001344072808e-22
1.23143603751915e-20
1.12438807137922e-20
3.43559350752273e-21
1.82448006992041e-23
2.06392882479648e-21
5.11418419637393e-22
6.93898726725781e-23
1.13051843092147e-21
4.79140966992414e-21
1.03035707383383e-22
1.81085866056927e-21
1.58097963080567e-20
2.82520451621669e-21
3.68564488243047e-21
2.29824390112384e-21
5.07879229702665e-22
6.66659533053319e-21
1.32128054957613e-20
5.45814741208856e-22
3.32409169885408e-21
1.0396424105394e-20
2.27353865775736e-21
3.80832381311119e-21
1.45893320102662e-21
3.44538906438206e-21
2.68895377941699e-21
1.25199084213712e-20
4.9176144475955e-21
2.73904386986434e-21
4.95820095766449e-21
5.6202886645344e-21
5.67028365045281e-21
2.30704563045898e-21
8.20375212980927e-22
7.36934292912883e-21
5.53195929942378e-21
1.21452323664409e-21
4.55927701070749e-22
5.49433984211997e-21
8.49441169945254e-22
4.21733553757331e-21
2.04580030720714e-21
6.45317047104861e-22
9.40158025714817e-21
1.30770843886327e-20
5.07099901919696e-21
8.76167580684971e-21
1.65849559713778e-21
1.38990140451383e-21
1.00263733375593e-21
8.52505370650405e-21
3.42972120172303e-21
1.83201863572655e-21
2.85740350115485e-21
7.45168469111618e-21
1.47415146112592e-20
4.78014440460827e-21
8.65797232693907e-21
4.56816469259997e-21
2.87043954963023e-21
1.63779834045607e-21
2.44871149302364e-21
7.24447561499887e-22
2.34140312071417e-21
1.42579087394151e-21
2.85523119811886e-22
1.02478750940253e-21
1.83828867473236e-21
1.97299774413465e-21
3.28417370980427e-21