/*--------------------------------*- C++ -*----------------------------------*\
| =========                 |                                                 |
| \\      /  F ield         | OpenFOAM: The Open Source CFD Toolbox           |
|  \\    /   O peration     | Version:  2406                                  |
|   \\  /    A nd           | Website:  www.openfoam.com                      |
|    \\/     M anipulation  |                                                 |
\*---------------------------------------------------------------------------*/
FoamFile
{
    version     2.0;
    format      ascii;
    arch        "LSB;label=32;scalar=64";
    class       Cloud<dsmcParcel>;
    location    "0/lagrangian/dsmc";
    object      positions;
}
// * * * * * * * * * * * * * * * * * * * * * * * * * * * * * * * * * * * * * //

5157
(
(0.302465288928212 0.168229566549864 0.00152158486390851) 0
(0.303397600306566 0.167721425673611 0.00109372977277453) 0
(0.301933993416413 0.163807621406378 0.00372620206628266) 0
(0.298610588908898 0.162603705768835 -0.00213961837204077) 0
(0.298679902166067 0.165847238724198 0.000766298753083897) 0
(0.271910802336136 0.167408954754836 -0.00113696754299907) 1
(0.273441829579411 0.165073741339389 0.00205646838722932) 1
(0.272296332445639 0.168564313761447 -0.000573234427291514) 1
(0.270556822312641 0.167091450228349 -0.00316423670535889) 1
(0.268518032801084 0.166023417694255 0.00237494950272815) 1
(0.269191703688632 0.165103451729264 -0.000807634102683202) 1
(0.267809850623321 0.1676468323609 0.000362018111414713) 1
(0.281606688740562 0.167575430252611 0.00155372831845631) 2
(0.277737137635268 0.168409591461403 0.00133489148009904) 2
(0.278979140198798 0.167265772966487 0.00138358416791334) 2
(0.275682187140356 0.167860461358516 0.00380738076984867) 2
(0.279210047092512 0.165419331061539 -0.0014781803760938) 2
(0.283590521394365 0.170501402051081 -0.000286311285301801) 3
(0.285950655809331 0.170286742250028 -0.000616120400029579) 3
(0.286861247537292 0.171233779756565 -0.00377703108167925) 3
(0.288428429461737 0.169823475741985 -0.00337998049696246) 3
(0.28843285410294 0.169771687973224 -0.00378645784130494) 3
(0.288305622180336 0.169839297354301 0.00295446611223437) 3
(0.285798568271434 0.170310940496793 0.00326248178161167) 3
(0.283842218821459 0.169004209436752 0.00280667840256038) 3
(0.281958942376012 0.170217782905269 -0.00245372455950305) 3
(0.293056284678712 0.172119848289004 -0.00336995401416025) 4
(0.296360250227637 0.173106221300511 -0.0035385726843906) 4
(0.293413368235059 0.169335552596527 -0.00150776718954837) 4
(0.292952207974241 0.167212352974418 -0.00234385420641816) 4
(0.293088372089179 0.167649147735307 0.00172519358797294) 4
(0.291009363324188 0.170991898004789 0.000798379962969979) 4
(0.298960525142047 0.172629974439892 -0.00275667649736401) 5
(0.304691404380026 0.17121654543931 -0.00260984841121769) 5
(0.303110911821405 0.171181456967451 0.00232795930571856) 5
(0.304325865250575 0.170168322090691 -0.00152608283196196) 5
(0.300025172062648 0.172751484660741 -0.00276784229577243) 5
(0.301745499548703 0.170662394764163 -0.00413171329606859) 5
(0.30080161587131 0.170724549324484 0.00183184036541777) 5
(0.301477179908352 0.170539927120596 0.00107471693464889) 5
(0.299677995160645 0.172431574675426 0.00341615714461141) 5
(0.30211538189787 0.168633514460571 -0.00354563368045288) 5
(0.223971974728026 0.167554135986598 0.00185045838914136) 6
(0.225141805010347 0.167239505864486 0.000139657222848199) 6
(0.223910839781602 0.167949208504326 -0.00391483977755739) 6
(0.22679621355042 0.167362198754408 -0.00298614089074143) 6
(0.228306305291747 0.164616958506585 0.00398246488407007) 6
(0.224034706192399 0.165729708349689 0.00319783054084167) 6
(0.222440033225837 0.162308254641688 0.00171227662223094) 6
(0.221585524741976 0.163608018828852 0.000427351978735796) 6
(0.222460065970256 0.165459474243523 0.000197910854522072) 6
(0.22260643594115 0.166012299838875 -0.00212991775696586) 6
(0.23404427007657 0.166768244651251 -0.00067256963772383) 7
(0.236170133637712 0.165272646964478 0.00161255280476964) 7
(0.231209196986511 0.167723189827003 -0.00164108959196908) 7
(0.232861550524942 0.166047550062634 -0.00310388372534261) 7
(0.23343933330816 0.165841492273289 0.0014946230328124) 7
(0.230329998754691 0.165245749686994 0.00384089262575643) 7
(0.229089291008657 0.166647530347258 0.0031340692024427) 7
(0.23713056459676 0.169796744723637 -0.0037487603508608) 8
(0.238615135196415 0.168506611049621 -0.00224953276758275) 8
(0.241681547866717 0.167398727757149 -0.00324640527194407) 8
(0.241790906873998 0.166352128107115 0.00194839586677306) 8
(0.237437054596052 0.165032738480006 0.00419168289076392) 8
(0.238592281027235 0.165971011214215 0.000674946345537965) 8
(0.250155413172001 0.169161758407888 0.00227041295678359) 9
(0.246922825892329 0.170811916663111 0.00214582306529603) 9
(0.246162735227106 0.170530849382952 -0.00252172479025817) 9
(0.248873994356158 0.170358947206901 -0.00264364214150083) 9
(0.249483569756913 0.168815363666984 0.00241342953155586) 9
(0.250003944667019 0.171176055428687 0.00394965972542861) 9
(0.2459588954895 0.169348061255279 -0.000331710804091222) 9
(0.25896718364607 0.169983017578122 -0.00176295794230355) 10
(0.257101319922054 0.170792396855857 0.00172599257269883) 10
(0.257283677645562 0.168216105572027 -0.00272799337579224) 10
(0.251991169491676 0.166907453845722 0.00390554963564575) 10
(0.252361371632379 0.166714484318294 0.00268684177465487) 10
(0.266108457357057 0.171017613086887 -0.00277589723347941) 11
(0.265410856911802 0.173076917032883 -0.00173931788926214) 11
(0.26619512905251 0.170003918642906 0.00290996508768335) 11
(0.261581369769765 0.17322965522695 0.000861453142003486) 11
(0.264738290046313 0.173523671793248 0.00186394612524435) 11
(0.265066999815256 0.172452098072934 -0.00340482548259781) 11
(0.260023065624972 0.171584582540106 0.00324881538785157) 11
(0.263668813413995 0.169316860497607 0.000859848574191134) 11
(0.261228214994577 0.168364763790121 -0.00188903675727758) 11
(0.259359370184293 0.168435895439615 1.66316323422901e-05) 11
(0.271648094032979 0.172200645534983 -0.000865767202130615) 12
(0.273095571535474 0.172246794797 0.000375820210227206) 12
(0.272505683516654 0.17459435572026 0.0028301874358486) 12
(0.269264940521248 0.170245363530328 0.00167928964384456) 12
(0.271370556161531 0.170330097792484 0.000945070160417389) 12
(0.267797964153364 0.173217156767299 -0.000173571490828237) 12
(0.27739155312867 0.17461723220617 0.00156028575815281) 13
(0.280234047173847 0.17624421626241 0.000300832580568018) 13
(0.276384173761308 0.175371735656308 -0.0021244306673134) 13
(0.279067613537948 0.172347681041552 -0.00391587922816609) 13
(0.279719605543538 0.171973580273861 -0.00356505568785094) 13
(0.277364163922892 0.17194543649304 0.00363867470036463) 13
(0.276615091584585 0.172167360457817 0.00388228726359541) 13
(0.274889670642344 0.173208740016351 -0.00343065095351705) 13
(0.275328031811272 0.172408198279545 0.000162628870608304) 13
(0.289402395243599 0.175782626965906 0.00302702730283839) 14
(0.287552294883288 0.176813016671733 -0.00280663464500529) 14
(0.28535015090698 0.176405896423879 -0.00346632703959249) 14
(0.286393064783968 0.17234292424951 0.000214718865457416) 14
(0.296262214313375 0.174128236914331 -0.00230833046116872) 15
(0.292605390000142 0.176252066966135 -0.00347140883085358) 15
(0.291678070297465 0.175902382164595 0.00201643467263648) 15
(0.290269889973693 0.176514875407933 -0.00305920131232258) 15
(0.299774541962519 0.179069297586036 0.00133840942081266) 16
(0.302225761200562 0.176140298169771 -0.00352351285207493) 16
(0.189331977218233 0.165289670785549 -0.00192152067270596) 17
(0.189138750517683 0.165598529255669 0.00114230407981466) 17
(0.188635089608719 0.167710662573536 0.000776863700073002) 17
(0.190136257322259 0.163887786658789 -0.00400774874912305) 17
(0.185079253136857 0.166316391517442 0.00407954470141841) 17
(0.185414949541532 0.164939837472211 0.000247421161989553) 17
(0.183195261731167 0.165973296081189 0.000616898328110958) 17
(0.196163014487363 0.168162923403952 -0.00134667820571363) 18
(0.197440489808918 0.16477180737818 0.000705307312354219) 18
(0.198055107534569 0.168861540493823 0.00340494872961419) 18
(0.192628956339179 0.169358155545516 0.0034457721170147) 18
(0.195228806059949 0.167767240137029 -0.00268602404969024) 18
(0.197509943746091 0.167812464708993 -0.00410831992305929) 18
(0.196662897569122 0.166372431319449 -0.00383271753506264) 18
(0.19542649499589 0.165501890844945 0.0030360181208019) 18
(0.193162200752538 0.167245254682736 0.00283171545097642) 18
(0.197163401320089 0.164561697826419 -0.00108075935742403) 18
(0.19217970018884 0.167900376078345 0.000976317413036373) 18
(0.205081232970605 0.167540858861753 -0.000584708718956582) 19
(0.204158713655258 0.170047956872448 -0.000166023177348165) 19
(0.203818394034277 0.170189996404519 -0.00241625123989813) 19
(0.202992435847927 0.167890635081671 -0.00187204834061023) 19
(0.203414914272324 0.167054597435843 0.00340099404823071) 19
(0.202535530002939 0.167380590753643 0.00411442522907839) 19
(0.202634722748304 0.164889159959118 -0.00367001628329224) 19
(0.201104822608662 0.165124112420033 0.00198005519317533) 19
(0.198330851651712 0.165576712649465 0.00387913984219345) 19
(0.213099559946117 0.170380420682763 -0.000307945495322227) 20
(0.210515982216637 0.171440133943356 -0.00170883974894736) 20
(0.207649856793579 0.171265171143533 -0.00370569488914422) 20
(0.210333262743308 0.169971101822581 0.00287778261373573) 20
(0.210976858408995 0.166679930261167 0.000302476386685452) 20
(0.207739976930911 0.165905559166962 0.00157580259659189) 20
(0.206327353883324 0.170492701546851 0.00336627117858442) 20
(0.220726779281974 0.170747324455159 -0.00092702968211268) 21
(0.219275941619962 0.171411890494117 0.00181466616031995) 21
(0.216650692539996 0.171308731809938 0.00135952081553849) 21
(0.218944289041726 0.172448661968752 0.000275930794192982) 21
(0.216684077362118 0.17098666974447 -0.000866364737216318) 21
(0.215989225894697 0.170696444010151 -0.00258689239895051) 21
(0.217124830069384 0.17063921340848 -0.00119172178811238) 21
(0.218706939406161 0.17081660969243 -0.00186976991506844) 21
(0.214252520293151 0.16739056853717 0.00379692218555019) 21
(0.215476728041272 0.167331650013823 0.00146397464715919) 21
(0.213849808881727 0.168929244679634 -0.00190993111859434) 21
(0.213913926228949 0.171089710296445 0.0028667781910253) 21
(0.216161985844794 0.169416556856054 0.000939043061500725) 21
(0.228439423082516 0.169431915636126 -0.00114299509585426) 22
(0.225960419806204 0.173646085573615 -0.00115427365573981) 22
(0.222784633284945 0.16929903752272 -0.00253386632010288) 22
(0.226845650843077 0.17210489462019 -0.00417098898872473) 22
(0.223674297446395 0.168872447506621 0.00322029470534252) 22
(0.225240237205225 0.170056214853793 0.000717935658054696) 22
(0.221056613307004 0.171660977363825 0.00159773754237103) 22
(0.236111459785018 0.172195775666386 0.00107329792865227) 23
(0.235327965878167 0.175213756888215 -0.0025223948991972) 23
(0.23193275767094 0.174801047703928 -0.00275635324871465) 23
(0.229889811986959 0.169815990949564 0.00230495040082614) 23
(0.231575725558002 0.170536521161048 -0.00216922685915536) 23
(0.229668193438697 0.172131149393645 -0.00139547303919637) 23
(0.22992552320816 0.169938651576726 0.00239367178080899) 23
(0.24261534292751 0.172711767893991 -0.00159021223758416) 24
(0.243023406477742 0.173188878113823 -0.000673973949308587) 24
(0.239398189993672 0.175764177471581 0.00239584279581465) 24
(0.240323312433698 0.175759408559693 0.00316577754141788) 24
(0.238453227867528 0.17438300355127 -0.00237087110053864) 24
(0.239998006283858 0.172447144402077 0.00371538346887663) 24
(0.241855157202851 0.172699812989322 0.00295633172800913) 24
(0.238522573210045 0.171832996924335 -0.000110627426930736) 24
(0.242148013874633 0.171120156056924 0.00225879048660557) 24
(0.251379543178937 0.174175303839494 0.00156404744821637) 25
(0.244967655466043 0.176344381958996 0.00162002245498967) 25
(0.245954539744405 0.172444967397723 -0.00416086802775307) 25
(0.246076967782807 0.176539793090681 0.00386247135912879) 25
(0.249446106283622 0.172716803297781 -0.00147568884193308) 25
(0.244416502328775 0.174396632204534 -0.00240968654821861) 25
(0.257173559929998 0.176204382940253 0.00186515926853189) 26
(0.25540763348339 0.17679658911279 -0.0018649702877324) 26
(0.254108378389314 0.177597897577884 -0.00410563515837465) 26
(0.251919371611474 0.176744498466928 0.0041097444990054) 26
(0.256465118679587 0.177517036694551 0.00379393529807112) 26
(0.253926629498464 0.172648428504974 -0.00131823534208688) 26
(0.25849496574582 0.173286472942699 -0.00171287916923351) 26
(0.251546024561345 0.176627219343091 -0.00127358129475287) 26
(0.251549533480589 0.173513332756566 0.000527532679240589) 26
(0.262666639938217 0.177056522587413 -0.000413497898354381) 27
(0.260794556365211 0.175677576303867 -0.00333762344004127) 27
(0.261331055858962 0.174540638505292 -0.00330835047196019) 27
(0.264545850738743 0.176042082975251 0.00409586437393919) 27
(0.262980249481587 0.175446973156822 -0.000961829369107087) 27
(0.259341958183226 0.177277733513558 0.00187107548996117) 27
(0.261629316047793 0.176865552307941 0.00106234182890489) 27
(0.271751832467236 0.17783850091608 0.00126556328225549) 28
(0.271143600099461 0.179267591968272 0.0014248266706032) 28
(0.269390635358164 0.178729487455514 -0.00407691994488071) 28
(0.270812547645941 0.176979174830317 0.000144649095539963) 28
(0.267002533626675 0.179463217366029 -0.00372782767362935) 28
(0.267390900024202 0.178929151673713 0.00307430961303893) 28
(0.280795181074143 0.179201306760851 -0.00158935815172083) 29
(0.275282655463046 0.180761182997857 0.00299584639021663) 29
(0.277438862227712 0.180410746341389 -0.00393055233954629) 29
(0.276458502141091 0.176265926582567 0.00409263380857284) 29
(0.278593830450508 0.180014861615359 0.00292344643151353) 29
(0.279933927228033 0.176351710533152 -0.00400803219364898) 29
(0.276449581428517 0.179733618081571 -0.00158334550737307) 29
(0.288912901474921 0.179006747527243 0.000480696297855697) 30
(0.285620425155782 0.181930826130018 -0.00267303167351851) 30
(0.285807932318221 0.181068480472322 -0.00227985417754674) 30
(0.285447328503749 0.179514849541382 -0.00127683166618137) 30
(0.28328983385264 0.179840487398007 0.00154937528393695) 30
(0.296203662076643 0.181617462359274 -0.000371871979080157) 31
(0.294130793716088 0.183395683861021 -0.00159601532019945) 31
(0.295296610109572 0.182702582562718 -0.0024157187560156) 31
(0.296174006153733 0.182688528321841 0.00344935439038478) 31
(0.292577753531326 0.181926326058611 0.00353132643730064) 31
(0.289782664384925 0.180964933458177 -0.000278427299980458) 31
(0.3001283747001 0.184045481950203 0.000839438473988037) 32
(0.304402863460363 0.182940757628789 -0.00350060810544759) 32
(0.302368922284357 0.181324861630154 -0.00367921547995807) 32
(0.298151668855361 0.1801277230384 0.00404331595805354) 32
(0.299716149019254 0.179422368688855 0.000814249165747891) 32
(0.298254995403556 0.179158735248042 0.00388538543770189) 32
(0.300374734131412 0.179543072096407 -0.00143271870682143) 32
(0.297298636089294 0.183774521687918 0.0022634431706352) 32
(0.298015528221631 0.179953786711635 0.00182041955747787) 32
(0.142995808240487 0.166778083472643 -0.000742218341895114) 33
(0.143676479692643 0.167664371610775 -0.00166174559404276) 33
(0.144703789104298 0.165555069890242 0.00282798332071695) 33
(0.141122758410716 0.167202946736381 -0.00136769258231932) 33
(0.14086850078671 0.167491708775974 -0.004188423827859) 33
(0.143499410752213 0.164553563640975 -0.00388281248248466) 33
(0.141509939663657 0.163996387996331 -0.00407725391297379) 33
(0.138329648926404 0.164402860213429 0.00315907306190435) 33
(0.140254521275241 0.162807692409109 0.000576843495283604) 33
(0.146425134766308 0.166993141373203 -0.00345484540850385) 34
(0.14903239958072 0.166578009562533 0.00399629162722293) 34
(0.145334835619305 0.168854005344898 0.00380048446729134) 34
(0.149041722211214 0.165614112496781 -0.0010875768305361) 34
(0.146061890755993 0.167048579858108 -0.00170842744325938) 34
(0.157735826561364 0.167654714943906 0.000416179214922417) 35
(0.157138370278907 0.170669352520969 0.00305819507540909) 35
(0.158236272577484 0.169784451903821 -0.00230019093070726) 35
(0.155876188222284 0.169788525810033 -0.000405195182338712) 35
(0.153477769541552 0.166266734024353 0.00390519633290416) 35
(0.155157638643784 0.168612780563364 0.00309415306113987) 35
(0.155825849977678 0.164941922408132 -0.00245808127885511) 35
(0.157088361583447 0.166901516626577 0.000845787357264624) 35
(0.167337037258289 0.170737113030639 0.00284049217931575) 36
(0.166852614353474 0.171767187840835 -0.00286044370703995) 36
(0.161600102933092 0.169698919285084 -0.00288070882142097) 36
(0.165472697579647 0.169642614822023 -0.00205185834488592) 36
(0.163227362011695 0.168404149257929 0.00268667427457956) 36
(0.161180612505727 0.170590048539404 0.00111171757586098) 36
(0.172053083392252 0.169806923383502 -0.00416000971964117) 37
(0.173402552627134 0.16926124050994 0.00328972072364722) 37
(0.170918266683854 0.171491453848836 0.00294616541375041) 37
(0.173361530027416 0.168425810028073 0.000789447155615841) 37
(0.169688665258919 0.166755743746907 0.00260429983651927) 37
(0.167891610831216 0.17207732836815 0.00190194138842854) 37
(0.169869045582804 0.168468906192134 0.00156152653983088) 37
(0.181168256103909 0.172518567133347 0.00172618643968812) 38
(0.182252039873297 0.170961637190832 0.000113219978497356) 38
(0.177690843834463 0.173166624630301 -0.00143224083557894) 38
(0.177917614237456 0.17285673048323 -0.00222862722061899) 38
(0.177961414453905 0.170482397889588 -0.00173574094395183) 38
(0.176474889175214 0.167327002218588 0.00417022796560247) 38
(0.177444309397317 0.16990852347905 -0.0008763088137048) 38
(0.186543454240419 0.173489417205965 -0.00262661513961976) 39
(0.186009117429933 0.174376427609032 0.00378121780847381) 39
(0.186686188865457 0.169078644201102 -0.0026341192234206) 39
(0.197104009546739 0.171387696723953 0.000859793783075019) 40
(0.195941764576767 0.175248381595137 -0.00249559479795417) 40
(0.191171769303789 0.170692520388138 -0.00402669603943734) 40
(0.194560278589011 0.171255729389116 -0.00418073043156301) 40
(0.197264792616905 0.174418747789221 0.00343691281254817) 40
(0.193974616616618 0.171165665068766 -0.00226353248613777) 40
(0.192402469953794 0.173382680440951 0.000409427566613737) 40
(0.190666696666131 0.172961594702936 -0.00098901952397429) 40
(0.201987482961009 0.176787800986277 0.00296035072114689) 41
(0.19909332795013 0.176634397929471 -0.000134460287805868) 41
(0.200902180459023 0.176823933465281 -0.00276178721607531) 41
(0.199451484139378 0.175220329531408 -0.00398190174878865) 41
(0.202444148034203 0.174167701253672 -0.00394542037744013) 41
(0.204065618502461 0.171820170320401 0.00376080453177732) 41
(0.198528345797593 0.17048062621733 -0.00351571420560125) 41
(0.211899769373802 0.175263171092379 0.00230427937648448) 42
(0.210982403627762 0.176845673135361 0.0016630097562225) 42
(0.208373824462419 0.17726089270889 -0.00293975001127294) 42
(0.209295838989362 0.176359783689861 -0.00301615079812377) 42
(0.207871464858849 0.172237474897174 -0.00359264345934349) 42
(0.209384578736695 0.17202994292993 -5.7821494537566e-05) 42
(0.207118824203067 0.172749921795778 0.000902255541131026) 42
(0.207288741630452 0.174244629833087 0.000667948098388365) 42
(0.219652106530226 0.176601351128865 0.00224613449039027) 43
(0.220529710785842 0.174020574754886 0.00217423185868542) 43
(0.217968705814964 0.178668283427847 -0.000806126741042155) 43
(0.215197921800459 0.17699991774601 -0.00358116605397338) 43
(0.219221031436472 0.177309127412197 -0.00419760008835434) 43
(0.220047846903538 0.174459415353607 0.00339964218139582) 43
(0.219313444014751 0.178505749043865 0.00343224339423893) 43
(0.216199892495935 0.175630536811107 -0.00105725255111777) 43
(0.214398042173477 0.176164787473901 0.00169066781517024) 43
(0.227291433447953 0.179114813877796 0.000885160710826238) 44
(0.225096909591668 0.180145319330571 0.000562653798225669) 44
(0.225153287883371 0.179398928964172 -0.000752680924688244) 44
(0.227679754967132 0.178409644797981 -0.00402578191760804) 44
(0.227661147749354 0.178701110434208 0.00390648832999765) 44
(0.223569107274342 0.176440571266535 -0.000750360541639381) 44
(0.221216216347289 0.173937587611834 -0.000686306476906539) 44
(0.232551784127844 0.180958034182827 0.00236697122652384) 45
(0.233297880036084 0.179687951716463 -0.00313279676564818) 45
(0.234912109123604 0.177465728672581 -0.00298922700783871) 45
(0.235024343778061 0.177593198342807 0.00416812624362005) 45
(0.232021181279613 0.17584523556998 0.00285631443850414) 45
(0.229393024309837 0.178050399494777 -0.00232038781836422) 45
(0.228806732214296 0.175725082455491 -0.00355080786606546) 45
(0.229763881471243 0.176859798257487 0.00109387230430588) 45
(0.237325822943734 0.181423030023661 -0.00336550768645025) 46
(0.23885916354885 0.181464267097748 -0.00146875673676311) 46
(0.239325507134422 0.177796959274955 0.00230285204309601) 46
(0.236524970562216 0.177372337028877 -0.00359048185625768) 46
(0.250839350012722 0.183042082309063 0.00235222445445884) 47
(0.251059218806478 0.179992028707349 0.00186290480937797) 47
(0.246923273059867 0.181083908390718 0.00120731929484343) 47
(0.248644942054937 0.182152959243477 -0.00129802137884226) 47
(0.248447702951885 0.179517231249929 0.00198646109945493) 47
(0.248042578095436 0.183115227606713 0.00417399033907375) 47
(0.259076139235148 0.182932989065626 -0.000419606627443319) 48
(0.257802173088918 0.1797862377883 0.000778243710301323) 48
(0.255832723125013 0.183741763514688 0.0010110536239983) 48
(0.253760533704722 0.182414456927219 -0.00180692496124064) 48
(0.252147823416358 0.17927187352219 -0.00354021796965376) 48
(0.254343629035017 0.180046134640971 0.000638163898817158) 48
(0.253736532158755 0.182215797625482 -0.00106916713847324) 48
(0.265534230486794 0.184412293330821 -0.00291479577091127) 49
(0.261388020819238 0.18413640743469 0.00189563345795208) 49
(0.261259664418923 0.183522684214395 -0.00186091822316737) 49
(0.261340298432406 0.180065660320264 -0.00346691519577459) 49
(0.263270774141192 0.181504035753438 0.000809398400161217) 49
(0.26486978586139 0.180187535089621 -0.00180654130504456) 49
(0.259283374770192 0.181386664142664 -0.00320305357904152) 49
(0.259485456341993 0.181699805925646 0.00113713075543822) 49
(0.27352412196262 0.18272531322303 -0.00200071836334126) 50
(0.272853065486463 0.184058519886127 -8.82773493191028e-05) 50
(0.274048856513326 0.181913141694458 0.00131966040245122) 50
(0.271737350034636 0.185408270277096 0.000321813177754978) 50
(0.270628173232073 0.183343804723024 -0.00109305369487618) 50
(0.272975675694637 0.184076142164339 0.00344192351847257) 50
(0.267835102766567 0.18041221136869 0.00258163683481991) 50
(0.267177914283805 0.180257850417012 -0.00303187972375495) 50
(0.279484081131516 0.186705599550532 0.00258126627735709) 51
(0.276039310215925 0.186728476507793 -0.00145219295301384) 51
(0.279692508259368 0.183534962153365 -0.00276468923373672) 51
(0.27518336101952 0.181567633506877 -0.000505948522099339) 51
(0.276579456481622 0.183823969770772 -0.000877414289281161) 51
(0.28891039029404 0.186713364023871 0.000988161373168605) 52
(0.285653510660749 0.186298403265855 0.000171911074650677) 52
(0.284518741647191 0.184711028739772 -0.00358317782522023) 52
(0.282484129287923 0.1833273226342 -0.00381989464390764) 52
(0.284718855985904 0.185365165961205 0.00179046115552333) 52
(0.288204258638531 0.183437275061367 0.0028205716395855) 52
(0.282057089886219 0.186624806084198 -0.000369317012737143) 52
(0.297066208755012 0.186472914557057 -0.00356182417888499) 53
(0.29653816171296 0.189345791806926 -0.00261084826962665) 53
(0.292193474323681 0.188093967315244 -0.00417000913354128) 53
(0.295611170032914 0.188768047332548 0.00349860728642759) 53
(0.294168121254236 0.185479046813228 0.00162170369396209) 53
(0.291085193046391 0.186868251913802 0.000492604572482473) 53
(0.289804683823602 0.186228274449356 0.00220476213588512) 53
(0.303328450835292 0.18965748927393 0.00218208616396587) 54
(0.303770572805095 0.1888355748974 0.000120392772023343) 54
(0.303797214836518 0.18845832844488 -0.00164922552474945) 54
(0.302312195582246 0.187310209516695 -0.000398605661431675) 54
(0.302892958870186 0.187701090016637 -0.00336748298806069) 54
(0.298411853062569 0.187415553536305 -3.82609946954873e-05) 54
(0.299525992883438 0.186751491903875 0.000537116152768952) 54
(0.0902092050233811 0.167413822858837 -0.00119012761689517) 55
(0.088015677956662 0.163477140496316 -0.00374766822421746) 55
(0.0882921845225238 0.164819055930172 0.000964785312131751) 55
(0.0894620316490111 0.164432922998644 0.00245267122563539) 55
(0.085271982642113 0.163089343872117 0.0032269250826591) 55
(0.0844443448512021 0.165158814857519 0.0027847992259426) 55
(0.0848778527433999 0.166633890054941 -0.000290333061907899) 55
(0.0977510365548758 0.165233370583002 0.00022439052418063) 56
(0.092208771701433 0.168970566295324 0.00242005693744677) 56
(0.0942051441786647 0.168042920939107 -0.00170354516959116) 56
(0.0923575993399599 0.168512366182861 -0.00371684391892391) 56
(0.0951660017958246 0.165136715823021 0.00350319101872315) 56
(0.0943100727986915 0.166960062537167 0.00335235563514621) 56
(0.0952753759781613 0.164608327584349 -0.00013652411053328) 56
(0.0924628356865709 0.167878097216955 0.00151584820531762) 56
(0.0917736041048839 0.166018197661384 0.000662971000783664) 56
(0.10562638801284 0.167669145381569 -0.000124125168637822) 57
(0.105633792097826 0.169088272220571 0.00209215015936571) 57
(0.100800312746921 0.169275857424244 0.00050048745805991) 57
(0.101197630807497 0.169185901878393 -0.00202262515247081) 57
(0.100262242278189 0.168089346734086 -0.0036928127655168) 57
(0.103809432757867 0.166973042761541 0.00398310864966969) 57
(0.103797968427156 0.168158514301321 0.00374176181746854) 57
(0.106575317308842 0.164289722776393 0.000568872203666333) 57
(0.103223371091688 0.1638620358989 0.00245260243320205) 57
(0.0991056036090204 0.166546164031002 -0.00061132275231933) 57
(0.114223874348104 0.16878184708546 -0.00111604246486991) 58
(0.112943007227717 0.170998843745586 -0.000665650197056854) 58
(0.110458672544268 0.171470803651091 -0.000999595171140091) 58
(0.110184289276626 0.168695554669143 -0.00101975304393032) 58
(0.11167177370689 0.166753702653136 -0.00400267377580589) 58
(0.110918290532554 0.165998544724825 0.00318212414033859) 58
(0.111274819844555 0.165618057857088 -0.00176672208081232) 58
(0.108436241120389 0.165477180498489 0.00139359074247056) 58
(0.107694882710676 0.170254679331027 -0.00216784019318226) 58
(0.107132127813725 0.166365794377723 -8.30022927435794e-05) 58
(0.116510019786418 0.170903042611703 -0.000759286662400563) 59
(0.118914110544443 0.169208343212869 -0.00352646634427834) 59
(0.114798419475591 0.167592747948041 0.00388043077771876) 59
(0.11608635646738 0.170617520975316 0.00340388174632517) 59
(0.118185683821953 0.165839546763037 -0.00134131930034501) 59
(0.115075829105538 0.165485472479151 0.00325312144415833) 59
(0.115522208072957 0.168950640118709 0.00192180452779475) 59
(0.127987969766112 0.170616146860024 0.00104151556794839) 60
(0.12677314474837 0.173106182556202 0.00189889106470264) 60
(0.126457265961354 0.171522039676348 -0.000967029588946622) 60
(0.126588184406808 0.171238475005144 -0.00143815874147991) 60
(0.124161405862208 0.170554018250521 -0.00201697927713717) 60
(0.125985823559657 0.17127681855486 0.00338582054868255) 60
(0.125036425349341 0.17103568112947 0.00183754122995688) 60
(0.122083566665953 0.171395745576482 -0.000439419118163304) 60
(0.124026343541826 0.169765783716361 0.000485118263366549) 60
(0.131711203347109 0.174200167186717 0.0017667056917974) 61
(0.134914585443601 0.174021624546612 -0.000850223081729323) 61
(0.133256403044334 0.173515145458469 -0.00300598118131841) 61
(0.13308772854355 0.169689107866013 -0.00228443266758003) 61
(0.13343074160052 0.170918382779063 0.00234776858713451) 61
(0.144397188732096 0.170641454945011 -0.00349794958677726) 62
(0.143304825646522 0.171472727582084 0.000665282279742589) 62
(0.142831438672003 0.171096914442798 0.000589852802753583) 62
(0.141751697210447 0.174195407328452 -0.0001609264638234) 62
(0.138920455874478 0.172934113110407 -0.00341370070706232) 62
(0.141611114794986 0.171700255753756 -0.00260488685624846) 62
(0.140152820142743 0.172719525971846 0.00287750178819996) 62
(0.140501539527349 0.17333739995524 0.00301761153477825) 62
(0.141405474730157 0.169216063910378 0.00053491130869772) 62
(0.137273689047836 0.173710663337658 -0.0024000906885271) 62
(0.147547654417666 0.1750813771861 0.000775864553157267) 63
(0.148110779873232 0.172018248490357 -0.00191364526820559) 63
(0.149780148613123 0.171099253793952 -0.000523055151836572) 63
(0.146859392363557 0.173314020614527 -0.00100997463661761) 63
(0.145518553882778 0.174465961886588 0.00300967644415567) 63
(0.158313574473905 0.173571737579448 -0.00195634511263858) 64
(0.155736872565657 0.175176570665281 -0.000402412442566722) 64
(0.157563066076022 0.175657394233669 -0.00322960044005377) 64
(0.154215254846803 0.176124689268229 0.00297018577874114) 64
(0.154419406113065 0.172214764379549 -0.00195322491720064) 64
(0.153506502054477 0.171051778428366 -0.000528382373318078) 64
(0.165751502046044 0.175118823637289 -0.00119595314954769) 65
(0.166980850988924 0.173447269515537 -0.00157110939162265) 65
(0.164393838098016 0.177719760920056 0.00244281397068049) 65
(0.164443568847192 0.177511099673358 -0.00226694401383772) 65
(0.1635762476871 0.175321274134462 -0.00153080031418311) 65
(0.165768246788313 0.175377084784558 0.00363119073897677) 65
(0.162618180413252 0.175874918724538 0.00387533669668473) 65
(0.161562590290622 0.176170120095989 -0.00134705242080378) 65
(0.162448077084693 0.175593036469498 0.000605667915187598) 65