/*--------------------------------*- C++ -*----------------------------------*\
| =========                 |                                                 |
| \\      /  F ield         | OpenFOAM: The Open Source CFD Toolbox           |
|  \\    /   O peration     | Version:  2406                                  |
|   \\  /    A nd           | Website:  www.openfoam.com                      |
|    \\/     M anipulation  |                                                 |
\*---------------------------------------------------------------------------*/
FoamFile
{
    version     2.0;
    format      ascii;
    arch        "LSB;label=32;scalar=64";
    class       vectorField;
    location    "0/lagrangian/dsmc";
    object      U;
}
// * * * * * * * * * * * * * * * * * * * * * * * * * * * * * * * * * * * * * //


5157
(
(1929.12264107044 81.6206441928321 -504.71565926907)
(1732.26081414021 206.211315359475 213.761015134265)
(2022.94280504906 478.8521562614 -367.870393204586)
(1574.74248686321 57.855822179267 -32.4406867811623)
(2270.53110997181 536.799426214495 63.8166607076214)
(2012.24361209397 24.3683951948716 -261.374933774449)
(2565.45060107723 14.1314535615771 -160.82748128677)
(2205.22859366621 285.282143010547 -0.994485535581198)
(1484.77709192655 -443.889401800978 2.15767280630258)
(2222.29972786058 -95.0814392397995 -185.814939727027)
(1863.56925763993 -242.066483944885 -479.036757885715)
(2128.04206259855 -406.419738571929 -30.0313914137849)
(2072.53893015846 83.9137433186446 210.705688435569)
(1591.03735948932 37.4706956323825 108.644999432068)
(2050.66538669946 -462.682229373646 -82.1975277888871)
(1798.38651337137 -573.764504312668 -559.467997025989)
(1653.95794898811 -217.040959607458 -349.015155188537)
(1966.99571222058 568.126618923778 222.529288447777)
(1948.78998976806 -390.972156235432 -271.560601107363)
(1953.31032144216 277.651502213383 109.286108020577)
(1814.24406664801 -833.60005283676 380.638624174656)
(1341.84163220996 -598.478001824174 443.001663617209)
(1474.11741521787 658.912313240697 -53.722503048892)
(1406.85846197225 366.161088099188 -116.1870476632)
(1857.88320274966 -7.57514781906221 -96.9182456575571)
(1813.53988768329 428.597725316417 242.465631932964)
(1572.69085084945 9.45274596982077 -445.17859519754)
(1728.67458114292 -342.904554245808 -170.563365382754)
(1692.57846733429 234.610734563124 -155.56032650558)
(2024.74372584735 92.8936269018272 -144.373656866388)
(1786.53993513512 123.565731081023 -70.4182648236925)
(1648.48564847685 109.222121833923 348.887964697759)
(1640.466295676 -131.605624735439 196.662783338309)
(1955.15081585506 -299.185709059942 -74.6381457791678)
(1624.51544747032 -92.9244410880572 512.056317228567)
(1988.48790656942 -462.167089727705 -292.546165169948)
(1173.21568762134 179.231800352447 44.5292514270841)
(2600.8774911252 -534.245029731151 113.372513306844)
(1615.14419082107 68.2118752215126 117.462195171549)
(1287.65856148795 -547.127986092586 -417.484838710505)
(1673.79114662238 260.679828900951 283.850246292588)
(1716.9990944725 56.3319748647866 -52.0937862311461)
(1801.43282175995 -186.918862740101 223.895251624357)
(1717.27348398884 -146.488439230984 83.7683629130633)
(1866.55817013068 -469.018701073191 -428.232497968453)
(1593.61153970032 135.901371672113 -32.0799250453831)
(1351.28075571677 100.105105057513 -212.97015482236)
(1335.94787105521 60.7898706896507 -81.903619413202)
(1636.53413995697 390.220465685984 192.837873993301)
(1623.30504495264 175.61294564231 -343.845619714322)
(2014.22307999119 -462.469537356938 -185.483045323515)
(1461.30476077896 -208.002048407157 -224.153560014715)
(1038.57002702998 632.321643606786 -7.31238786692854)
(1971.33189819236 17.4722987846415 -97.628779025358)
(2395.0831431234 -59.7651512864961 599.978398208132)
(1863.77836716844 170.115342900286 -291.236240064816)
(1783.88053414898 10.0510777716538 111.276779541656)
(1208.87811194024 -164.656580792049 -31.0166185153601)
(1195.89955511106 -9.07875594303874 -177.886136308593)
(1560.63088767139 -703.08668565784 -362.461247516935)
(1831.79151449331 95.4042309210061 -263.88464586648)
(2164.29625569077 86.9043881745586 -57.7148772822851)
(1589.89170233845 150.787146479001 172.094653981051)
(1620.90171922747 -484.514989658054 -107.343349108406)
(1998.5536880647 -114.830328410126 -34.4841370233988)
(1918.28988658622 95.1818166589064 -83.6004939472899)
(1420.15753845554 362.196800566099 210.819891484173)
(1114.95741042618 41.5637540597835 30.8037533807367)
(1973.94834290111 257.494279464849 447.262492456562)
(1306.86375202452 27.1392574660195 -424.533394920687)
(1988.74996844258 -326.515977227111 -60.6495417734994)
(1946.92847000942 -516.283464573218 -35.8556124539625)
(1948.07700882492 422.79751131442 -143.77863594006)
(1727.36178568494 260.972647916899 -201.272714118991)
(2307.92481798507 -491.822255678228 -31.8503180376366)
(2083.46909287002 -51.2073036398162 -473.490057876098)
(1630.9731898804 220.401790544155 344.942413494664)
(1188.29814595544 23.2982349138459 27.286097072774)
(1988.62379235321 -185.686086291997 -204.894817827058)
(1771.76655885187 -118.91875000494 22.8896303798869)
(1801.59811865535 -266.052925687244 -302.315898010861)
(1752.49888925936 -150.008718358045 522.812109135982)
(1863.50214449258 -131.090753616895 -39.1573309987329)
(2224.78091961413 281.228465693339 -352.761120611944)
(1707.72747639472 -633.002899862053 380.791017837937)
(1438.50785008439 -492.775215948182 -356.184543632347)
(1733.68152771674 500.891316010179 439.369886450079)
(2178.16528089588 -50.0402342718404 -36.6333000212793)
(1770.64827160551 651.309284832349 7.83885494866164)
(1973.73967678591 -55.6318940352942 283.676609621365)
(1492.3246842436 -461.640826707842 296.563163899359)
(1945.02339029083 -41.2652768171924 -250.498556780844)
(1552.35664802968 194.904051175967 129.724357237574)
(2005.05535312517 379.142670673366 26.0056998233836)
(1837.68857012099 -533.599527391647 -53.7917122271705)
(1882.19527550966 372.75544787051 42.8064111499425)
(2069.56835195816 -145.651557503124 175.412850842914)
(1552.68087296119 596.682047291026 -66.5368896902366)
(1309.51098030038 139.917152050046 -13.6598274616646)
(1857.90222019959 -184.98878284551 -59.7820586069238)
(1402.75612976024 474.438920263312 -97.5035123210761)
(1817.71930464738 49.7124412843765 318.428628776979)
(1482.1348927612 -354.67024548077 366.813745910306)
(1943.1656462838 98.8331053422877 57.3045359438477)
(1511.97918187029 -234.758649701874 -359.646987204158)
(1783.24605692135 85.2931869842386 36.8757444559411)
(1912.92992344364 -450.60693202901 394.560715866867)
(1641.90909707191 -25.0684724675018 570.174248194006)
(1884.84556788937 330.54388689399 -266.041991923241)
(1818.75616099444 -38.4539791072912 158.765030493031)
(1592.99419901877 131.417037745395 15.5299424961511)
(2034.2984816267 355.353238662087 -425.510250773407)
(1399.05238364706 131.660973877046 435.704172134018)
(1198.15219279327 28.3524810714415 -351.687904401608)
(2141.13804524801 -104.865415359511 -79.2435551999732)
(1793.9600744355 56.5245391131307 -1.58797386933592)
(1513.98374443939 611.044815715265 280.520554105714)
(1505.05210140652 -331.034702108956 -7.61218510499386)
(1190.45071041257 112.087891386788 400.916683330921)
(1648.02843735037 149.338042669708 731.449816481852)
(1354.45588543416 50.902893117823 144.729641537308)
(1647.51937220728 238.104326462676 -136.001781060765)
(1622.49314691309 -184.446411181027 -69.4626297844183)
(1928.67951805598 -65.5679130584454 -163.64341171632)
(1706.41870926344 214.814610933708 -6.20076224487824)
(1692.87482927391 -164.500773356001 88.1470647301582)
(1529.84483953552 30.4207873563149 574.012395957109)
(1938.74695521597 -252.153099475238 146.477114236141)
(1585.29900096526 52.7644302916984 60.2001838735538)
(1819.84479963654 313.568109385652 368.616553097963)
(1833.70607830192 299.441269155252 -219.854345413183)
(1544.39306283947 90.1534430800895 55.0457281797286)
(2400.7475651658 123.71052182292 599.093681784289)
(1754.49933696995 565.044561702274 -96.0538817094)
(1670.29138106251 -207.562808254576 -178.001592639769)
(2120.01115028889 -127.454546683607 -14.0876346685487)
(2077.68734417105 343.808067234942 -393.315615410594)
(1228.85708001797 305.912950099991 -359.10282307841)
(2015.24239794147 230.625103534121 -86.7005387746933)
(2155.03808637711 280.319207646567 -334.551159895738)
(1336.68937320278 -516.095565491287 69.2995176639382)
(1801.19199540103 83.9966288357382 -18.7325150487749)
(1797.31822305775 -222.347646244415 317.699363224589)
(1523.10477684069 -226.675047237549 -300.988323483748)
(1444.44801731275 160.575844937226 271.235653042755)
(2115.14870092757 150.708349041808 -10.3571814331841)
(1740.14888821989 79.2290851746142 -41.2493756519022)
(2078.7434228743 409.616211482046 -220.078496352479)
(1789.72224580718 -424.655769910873 303.054044580614)
(1658.1776095267 -72.0128160656912 71.6610908355102)
(1572.67534790682 -165.463542173251 6.16251728132356)
(1787.64288588935 36.3987381898672 159.194793799474)
(1755.14152001181 307.21702329616 -103.951243772872)
(1578.97217780725 -71.9319414383662 -611.417435914316)
(1638.98432269135 198.9486787618 -337.320199142414)
(1814.50704885138 200.852974470492 139.293208589944)
(1727.79335392854 420.998847716904 -183.084342437212)
(2029.37359654131 235.761797052697 -481.530034127232)
(1829.73653046206 448.274810182507 -479.849862581517)
(1724.47625977506 163.447411203529 -55.9016592058566)
(1249.08075224006 -53.0012951730957 473.447906945663)
(2093.31069084257 100.815985323991 32.8331338445276)
(2033.37306605016 -98.1614640627721 -88.9531794883395)
(1673.15542618913 240.696532109562 265.856863628293)
(1549.94434381183 360.58245257785 -307.415376614434)
(1679.42995985384 -636.639621309408 -134.661870845547)
(2110.2359072706 113.302914528088 145.226647289738)
(1931.21144319955 -71.4347112499077 117.876181546376)
(1698.10536939619 330.090962399883 -372.237844302222)
(1237.26262401727 -172.220741440117 -321.490381833328)
(1741.08198747054 293.115641815412 -24.916993109163)
(1717.90072002822 204.331891831598 364.696241264976)
(1733.26026926252 45.4446759222002 110.928859551064)
(2095.3575141635 -695.077461495701 -119.812458425467)
(1656.9360055434 235.800627998522 203.272616882129)
(1872.62764557841 -548.85646192941 -328.743067065424)
(1446.29208068966 336.05950206617 -247.434847093136)
(1432.69561065826 486.874793280679 78.5236190607489)
(1410.8574360341 246.274808825976 -185.925769292515)
(1527.02493267451 -87.5246850536237 -117.676981770997)
(2362.58107125649 -46.3405453131 -446.378008220601)
(1208.42680505764 50.1775432749104 32.6800135226538)
(1276.01100239172 -476.926046941926 172.386498792597)
(1933.82219350804 -70.7630699445088 376.645575191057)
(2094.09407588149 -513.516674927637 -100.078170743327)
(1332.9503155767 -181.013907446036 150.997401049728)
(1899.77497855931 -482.677193493847 35.5294366993677)
(1983.55131077832 -252.035576348853 264.600807083154)
(1524.33198019623 -44.0248465984881 -193.884059982051)
(1490.71380348315 -111.602815587931 423.275123855705)
(1427.92192081385 -500.238811208315 25.1898313993214)
(1078.730583538 70.8898606962873 220.887607337596)
(1955.94185687279 79.9905849746717 -2.67778620460695)
(1682.59929906664 18.0866831307506 64.8584702782072)
(1802.90884136302 -8.88196016080698 712.354138954521)
(1787.20196869331 149.450403573538 -653.112382780782)
(1886.10233994233 -471.843029506446 -87.9112989619423)
(1383.05235216431 -556.247293137264 -550.645298352116)
(1784.76284293983 440.495278720434 488.770801063742)
(2354.69056487312 -152.109712217032 -18.9568338474815)
(1477.2022935631 -235.842350277759 279.264518763613)
(1714.55420698211 -242.756553781804 149.123550657344)
(1525.87248155685 288.146624123357 157.767687841575)
(1613.74722850761 -177.997821345537 70.9507571184721)
(2275.14441554986 -159.787741860498 -178.171934357644)
(1460.4209211534 178.434960729353 -287.375465624891)
(2117.71818591989 -232.398160328418 156.120962068713)
(1637.73952681537 -332.579035688053 118.220407772639)
(2081.18282259367 221.506848496132 -27.4979032265786)
(1960.56071048824 -165.875706514709 192.549128593202)
(2020.07744203634 -251.332058354894 -266.226237179246)
(1675.48131754245 420.440037539457 330.284151442823)
(2309.85271167129 470.213401647631 70.1731721498857)
(1679.18363774345 71.9682420918452 -70.6890270726766)
(1567.54553376425 -69.4365996514891 -117.261510132653)
(1629.96115910296 -12.7721066233003 196.967755477802)
(1753.80308513116 -61.1510618785918 -162.149791950012)
(1604.19073234327 -21.8485811324915 -235.337457539762)
(2132.44291760492 -800.246930265991 -575.397799359597)
(1771.81235300313 169.768318674295 -648.594283254579)
(2084.90284619256 -113.331436600341 64.6942237795425)
(1748.47781490515 72.7401413796361 -130.544022113865)
(1700.13945932796 -13.2005572177348 -114.805940346903)
(1648.99960477468 806.840988325588 655.396807219444)
(2124.31196339237 -351.206614176924 -14.5502098606978)
(2256.41415823194 -5.66800759238869 4.96795802305931)
(1602.90944158055 -430.460081941785 -150.89302098876)
(1721.85009902321 139.098553952035 360.248513637767)
(1778.48781313653 179.24345698317 272.639347147283)
(1504.50184835565 74.3432290501424 576.092928616276)
(1973.59317981348 -138.043539895926 -359.535709582027)
(2084.62717452297 202.982863945519 42.6890808867598)
(1726.4634534285 -53.4559525836114 -368.132733842832)
(1736.16400683317 43.9610456512561 136.755978335656)
(1540.54647618129 228.14411852294 94.9685275452559)
(1472.81526518373 -317.488588633491 226.480180283091)
(2111.75850501494 291.453876822455 468.402545157617)
(1673.20843151886 -90.0065709323178 -18.1236072012078)
(1724.76224958662 37.3989876521729 173.233741879167)
(1872.58373792184 177.266669558817 -614.64826358241)
(1924.00983086252 122.98921283423 137.955539124066)
(1283.78816560028 -290.428909487236 433.480561278447)
(1641.10062783908 -364.992714870929 120.370527969802)
(1760.83852669791 -183.362077588332 471.174603770007)
(1991.61659609852 -220.194731770539 -192.527130507933)
(1956.92624884964 85.7829059998807 146.553342480853)
(2459.2854759685 1070.48656708355 -235.768174733704)
(1942.14459528321 -674.245022201559 -130.696870913723)
(2067.86134417638 -164.288601053984 219.826688610332)
(2096.03624308719 368.568617120235 -398.1340419565)
(2080.88791200252 509.662341187629 46.3731245123815)
(1832.32103337284 -115.630334595298 287.872314951798)
(2014.62949994763 -203.691119045426 -537.434812872676)
(1542.5960714953 207.566783116542 -258.231909478198)
(1699.89752588337 164.002521755747 -1.96076404369418)
(1641.55066974903 -270.221468678172 230.459537580302)
(1912.21044276004 433.12408926918 169.695570932762)
(1557.24745445366 166.751802182944 65.1400103974731)
(1591.61517046409 89.8287667212144 -339.318893121224)
(1200.47964112037 -574.8689289441 739.269562018976)
(1329.73519870009 17.1442608053935 29.8577900585391)
(1409.40687332931 -123.030652996196 -808.802569838021)
(1443.99728487009 132.457429749826 273.753990836579)
(1878.3377450141 -7.19022270598657 -297.434869898627)
(1692.44427557747 -262.77941661633 527.822592738722)
(1672.29746010501 95.2057160550051 -331.811147397454)
(1879.86136508113 -42.9372050151355 -344.560648292415)
(1150.93077326728 489.198985264547 80.1966299054048)
(1496.86319982035 595.694707818142 -464.064354229274)
(1742.03412676815 -853.761429578258 -235.119998430371)
(1392.76507677041 369.743568614157 -258.399846085828)
(1356.52454850414 38.0180969816199 208.496470758214)
(1765.07137247191 295.907571596957 -112.921110414526)
(2116.80466235005 258.629299378011 209.782153239335)
(1730.73984749697 -345.045311312627 -26.4081483826747)
(1773.07361206957 273.021756726981 299.732254034808)
(1754.91195932768 -57.9057028591306 -389.600844366313)
(1801.46952818479 412.11130904473 -114.41777080805)
(2206.65875703913 127.459498297055 -98.2260990165624)
(1906.09464831534 639.064417458663 363.342923731535)
(2044.87654972687 509.766542865894 -184.825381890338)
(1996.67350331588 -80.4284539078701 -291.871832510218)
(2100.5037743118 170.143997098205 -19.8494123139964)
(1895.3506610098 -30.276879290731 29.8909982791029)
(1839.02445854095 -8.95894724799824 -51.6122548544672)
(1540.87512169612 -528.826055845106 59.220903445744)
(1785.76343943028 -60.1710982118871 79.6152121093467)
(1942.97402177969 -423.073927061196 -35.6285730632231)
(1136.27865398477 402.639797959693 89.3766933323176)
(1494.65427357568 -326.995103267699 -233.287347096702)
(1527.84029633439 356.037631830174 287.563235689873)
(2025.99228110978 411.002454444237 373.699757826124)
(1396.38854806908 -226.881641088066 190.048352581327)
(2085.31313835161 -368.657909600941 453.504227978282)
(1713.02218941593 492.024588095487 430.857094267658)
(2109.82776774636 136.842353741297 341.980574422878)
(1571.59212973552 273.13653025389 -447.178251194656)
(2134.7037883819 -298.350903346863 483.525073059209)
(1365.96106703685 -113.084619086506 -114.271750976421)
(2069.89380868301 323.381882248297 97.7296597861733)
(1179.51271898351 -97.2189180173606 -7.99235226501292)
(1490.11156235113 -357.016306492264 83.6060694426633)
(1750.47737835007 167.943696880722 75.7755824426128)
(1678.8733340848 -80.2360700773458 -246.817190724203)
(1416.57638718511 -399.291454968407 114.555194719544)
(1303.68852108908 -122.342549239745 253.048112958082)
(1474.28348058353 51.4354665120375 343.091088105668)
(1467.93247089974 -133.881352918277 -151.582876034294)
(1517.59259551378 -643.10247528419 55.0577295436633)
(1748.0814265843 -199.259294887115 -232.123458982833)
(1501.20357051501 -338.384701248262 747.873609037308)
(1844.14630729524 -174.047665304975 -226.782580701052)
(1612.08900941767 275.514877631569 -125.481256249388)
(1197.51450018873 511.100391502263 564.184416485406)
(1515.66878475659 75.3366331428893 164.886141371959)
(1694.89904551185 -255.03498267122 362.618328385073)
(1501.52559275454 176.566093863344 -422.739966261988)
(2117.83463477252 159.813597759456 -36.3353805622773)
(2039.76766344807 -337.768895394967 179.663105106362)
(1738.45084496835 261.729250701125 272.736624362455)
(1906.83788343047 -243.755414226833 -256.544858320069)
(1991.17400724377 200.871068587481 120.200994171053)
(1537.9228576391 122.142233098547 -95.0680017005859)
(1372.9909691889 64.7851661802559 526.406770865284)
(1674.25663721507 -106.180166192263 -196.22692843686)
(1806.58962217403 -97.2957995936346 -549.389102702693)
(1609.13637734081 -264.903012779211 -625.347184976118)
(2154.12294645848 -271.556180295563 -136.624618080226)
(1869.51286478092 -38.2956924135255 287.541997250706)
(1720.82459411571 -69.2333143662457 -202.781294181133)
(1822.80708450073 -61.8658523821165 -166.315024360663)
(1939.00219736683 232.528598920345 -364.93168336587)
(1802.18942490361 -30.840235170773 -114.934734701818)
(1969.65277714048 290.261177041288 -527.302682253469)
(1923.8796269167 -237.11416231391 370.061458563173)
(970.781813938862 -410.070706021332 181.870997470528)
(1735.16243109703 262.682084205004 -63.5798188172877)
(1626.65052244874 -64.4285610305271 96.9025982837306)
(1658.46015683166 -166.099661937665 -424.503759000899)
(1187.45506905264 34.0446073561829 -8.22694101684096)
(1996.00652394506 -10.2481135051682 -7.46685365291698)
(1447.9765704025 40.104959297747 162.127628064325)
(1732.35037552452 187.112697734835 495.41688235522)
(1551.72055033643 -229.903502400254 -0.55083455854495)
(1856.12590685847 -25.4947688972325 -0.899525297252195)
(1622.83088854748 -50.1647053839061 -571.201299616594)
(1587.47588079839 -112.635778934953 -495.592814863779)
(1589.22861342653 655.290075083314 -250.371697233922)
(1437.62895443597 524.21954308301 -317.77670545769)
(1195.30832304031 -145.540980904369 455.775751096417)
(2071.17870746821 107.379057846353 203.03353832883)
(2138.52179182339 -122.431936314425 -179.844703417136)
(1607.76313415848 -135.238431772669 400.87628472706)
(2268.33655869316 -41.0913395848697 -107.49373152358)
(2072.88230069899 118.988605526328 -310.49939850579)
(1722.82362357017 -16.0032375165769 -15.1671377518405)
(1471.92318139836 236.420913348091 230.986212295847)
(1650.92542150365 235.822668794913 -41.9470629517374)
(1539.46227597741 56.8088717325062 -83.9362960661273)
(1730.46838504367 74.5279627828588 -303.545555743689)
(2042.46280242405 -300.468622127892 8.88558074420498)
(1756.41302504071 -293.216876046404 17.0556151635211)
(2434.91767850781 -646.568994066076 499.057924870704)
(1527.76027513789 141.812180364803 146.318995043044)
(1895.62510719502 -219.412325758527 165.735001202633)
(1949.09102954202 48.5277372026486 158.958803240342)
(2398.99628678134 15.0293799858883 335.422453977305)
(1508.9662756272 525.950458929684 18.5184598374648)
(1777.24397917553 -321.004455825335 -169.426584393783)
(1676.03504303875 -277.83300549483 -62.1864710608486)
(1538.41606216809 59.8391461063942 -20.0826824427682)
(1599.23741511944 -48.4102030954418 -183.221170014665)
(2315.76767259489 -298.145430370311 -907.894751580076)
(1152.43210590309 434.259096463126 181.473024353552)
(1907.21418436564 154.70035172525 399.059652715451)
(2006.23575939649 39.1929538167425 -108.279041276646)
(1834.49124788193 -39.4784133982234 382.777250133732)
(1830.74688349172 348.015196553779 191.472117368563)
(1678.97484196787 -446.277455898205 -561.402370754524)
(1673.39554713278 157.120257642104 494.386270950245)
(1677.86185019497 20.4630971646061 379.144045251096)
(1106.26692720105 -297.098534747421 157.478351766966)
(1471.74811646652 302.296350074584 -231.238971978491)
(1590.78033350655 -132.484547717368 304.131742718843)
(1999.32377184896 -673.889595433792 260.873250161376)
(1407.52707688497 -23.0339167103247 -690.122088258769)
(1550.73117975535 -1.12346811208441 -42.612515828209)
(1934.52232913206 203.039924087054 -273.455592030526)
(1741.01237132632 472.117728321992 -302.875236376041)
(1726.89643170865 -157.750458523147 76.512082565311)
(2001.17747709616 253.348606212937 451.706265712839)
(1895.40622188669 -415.168448164598 -505.427039987233)
(2090.64528005998 -599.583166710498 35.5270411518521)
(2002.26509752713 -331.269597856063 -365.460311238729)
(1491.60048529351 63.6487359299833 199.326756721728)
(1908.82734286149 -291.53196338739 -255.248654345427)
(1724.48482482393 618.774235859383 -562.408905612425)
(1770.60015698281 201.450881549491 -19.6388694572009)
(1679.04720753473 354.377378807978 -569.243451797018)
(1981.54448436097 -314.108856578813 31.2321931306488)
(1773.65124352461 -297.949543849747 6.40921028968705)
(1495.51207855779 -433.38389285345 624.377156471799)
(1919.94960845767 201.682423853616 -177.832084650723)
(1600.41271792324 -225.035220432148 -97.3299551696731)
(2175.61592653012 -431.602433657075 275.250190916393)
(1938.40395728268 -26.1479225730188 492.85458921388)
(2412.84209707223 655.188570844045 547.500321212714)
(1292.76695677616 -355.981647318266 -0.852499698360766)
(1863.29176391662 159.616501162061 190.183599731582)
(1681.40008214607 152.208356213732 459.572024212578)
(2525.83902592808 -169.178200698616 -77.6154726628994)
(1894.39508757692 291.876286880168 -32.8673262372592)
(1441.04231750527 688.484895878742 60.3738566645451)
(1560.71707968323 158.818738894636 538.613689390522)
(1549.87080296941 26.1261752675896 -199.830355117719)
(1329.43746573615 -397.901823456165 -184.54778019244)
(1736.6814772376 -445.214402948024 -37.9311045565067)
(1736.35712201593 -52.2148300820593 13.6768256943101)
(2227.93079522078 359.892101060506 -5.59087857543007)
(991.436148247961 83.1814525530243 79.650897395119)
(1668.80937799675 -358.218476511747 -422.869344133792)
(1913.16651011556 -192.390480883696 -2.69897342706479)
(1639.52281788087 -76.8489621174695 243.169982310199)
(1005.66749854282 -295.793536159161 -149.932982579769)
(1749.15369700437 190.19796005985 -574.688652508592)
(2020.98134374826 467.670638412303 516.655511344575)
(2086.87984823794 -72.559804206614 256.077168553577)
(1943.56576849943 -218.986721584192 -230.957483694059)
(1689.35798538935 -34.0556183823082 390.199749893696)
(1799.78934638154 218.50608897274 127.459198983011)
(1617.1676519843 -291.736858737927 535.25778685509)
(1387.03203897244 -214.674435157346 -45.4785705932119)
(1994.34059923124 113.772161552527 218.043900543797)
(2121.84256575137 -491.612488620147 174.032307853198)
(1803.88341265169 -265.322100250854 -21.7851054427816)
(1718.91082079014 -101.203384858899 24.2436934680476)
(1598.65102926746 126.963273736795 -215.897965237782)
(1724.0322982441 -3.43562596900975 -141.319899793337)
(1840.6639834801 -70.2086032284164 -91.8709793562065)
(1555.87067726656 301.405562692979 -328.187300354259)
(1846.28705922002 55.3130890820753 -230.406121811728)
(1731.28742125494 0.961992403945891 122.727466317117)
(1699.26934832205 -4.67893602476522 -457.459013207345)
(1088.52343805354 -87.6074914100905 224.498484027055)
(1936.02491515571 -40.2847768487613 -485.543924870645)
(1794.70286139891 -177.077616236531 -223.383180972192)
(1562.42623601371 78.6140196525338 -653.789704520004)
(1955.33573466201 -295.911634004812 -266.317965897796)
(1573.37695058322 170.564352877255 -168.863950054068)
(1536.63143504712 13.8786239771535 -625.477844868632)
(1258.95640238705 -282.322966526381 -137.996928044341)
(2042.6800392992 189.169936264871 26.6406631413221)
(1687.37211477946 395.802462732859 352.30275552822)
(1380.3904130201 241.40964099274 84.0011571586772)
(1452.89332713685 49.3713540611967 -23.4833492393224)
(1812.39361389896 157.393881964061 126.68158903727)
(1242.37711218538 58.9074492314341 -679.302100305164)
(1707.77894439094 -212.040955486863 30.2744155275802)
(1609.75021776598 167.768938620045 -179.666824732637)
(1665.57328230329 15.8867989313302 -129.679615344862)
(1630.20916542817 481.017003119681 -265.085337356526)
(1862.29838781404 40.7755675294766 60.865790338616)
(2091.5041207616 -77.7135778835812 -246.811020259016)
(1423.06571859876 410.291546531686 273.546253072582)
(1546.50852194117 -540.185499865552 63.5134380239732)
(1772.94941017193 -162.941100674443 236.366062822347)
(1488.83349689051 -373.713726373604 -205.793580099086)
(1453.34174207565 -227.716208200851 96.4756592737125)
(1843.50651823865 -280.400281325177 484.676236955426)
(1783.18561837761 378.653342552584 113.721978028673)
(1449.73878989326 122.459634189326 46.4099098296019)
(1606.71210424603 272.957351806942 -49.8003724622351)
(1789.64318418755 -63.1274559414602 625.054197569124)
(1633.83538377153 42.3262275603814 380.728687008712)
(2029.60723313161 -178.942365257432 -278.940354026283)
(1549.29555322571 -62.9096801050777 396.887163169067)
(1529.69718254052 281.922929481831 -179.595614197784)
(1576.61158380321 271.881609941908 531.81985528026)
(1424.34997442125 110.503865406346 173.36430070804)
(1849.55343211465 -156.530594960326 74.2086852626091)
(2224.48163565108 410.855192540482 -139.927486780537)
(1348.34679412882 169.017688227489 288.226031825258)
(2077.77476437579 -206.365492135018 110.517291583526)
(1573.51087608537 366.952025753653 113.911881671069)
(1971.00133381609 164.048740850324 -196.487739593302)
(2193.43616707274 -75.7676205134763 -158.006489031261)
(1724.90145471273 -138.011555235789 213.360990959991)
(1063.58312759675 -344.098682330368 -556.969807897434)
(1008.04066584199 -148.100440020018 -560.852639410909)
(1711.84103028466 -560.871852667865 -15.6508647552467)
(1685.77947187395 12.6172422496615 -538.92291929224)
(1105.13406726509 -178.875998942913 184.247927647861)
(1675.50987888971 -166.676643896979 273.74851240473)
(1730.94235179198 369.690975883569 277.392630209496)
(2158.79703056951 155.705251623411 -125.639160768882)
(1406.43237627194 -115.061213284664 261.337816692597)
(1734.24659930637 129.298170848629 356.542064525083)
(1954.46792551829 -108.036438056586 64.5782182883761)
(1532.65473895139 401.063651094411 182.454474298304)
(1662.46324830722 -449.857904145758 134.397007989919)
(1620.35000925908 -346.672495005715 12.43826373249)
(1680.07523522454 474.714231572827 304.167380849246)
(1546.57708612727 -43.1755821172054 355.173826307957)
(1482.56189915809 -254.032187948799 131.414321757065)
(1697.55909768232 160.622888354844 106.629334910749)
(2061.6874476488 396.575949442874 135.689583611516)
(1794.292927987 -295.452040111425 507.575915889572)
(1787.27023824153 74.3826630511973 -163.803513968974)
(1566.51662185853 296.904388894534 -89.9351349700386)
(2034.36942621237 -543.437234927458 -230.760627210752)
(1823.46832636748 132.231343962151 505.829707782922)
(1700.20154704647 174.065546241831 180.696080858873)
(1552.60742935647 -176.494475017013 -296.426382655527)
(1846.7579851504 45.2690543378124 -239.94372362154)
(1751.91210359486 -54.401139814121 106.015569594785)
(1688.23912483767 -319.723173933778 13.6956433091877)
(1592.36914789772 -443.876795381749 -446.26376853063)
(1905.93575365139 90.7011941157229 -220.794408671414)
(1604.22601081019 -603.666730607151 -164.642319212748)
(2093.05468382232 51.6586728565011 -4.13418155690839)
(1756.63814495161 238.721969063126 -191.674653434283)
(1781.34152544025 -18.1187972661072 -340.258372666071)
(2052.30144371977 125.621914368808 -719.173466088224)
(2095.52208902885 -234.58246804852 190.031339266421)
(1505.52669172908 541.374379843706 -168.751205421494)
(1632.41434304931 213.97439798799 532.448518442206)
(1400.44132030959 -395.582109520341 -310.802640354795)
(1783.69941708125 -250.391967193207 13.6681545147387)
(1956.42086935311 -88.771850760025 289.544375930943)
(1448.3884623974 355.472977650404 -72.0198567030017)
(1956.27568700464 383.795485191555 242.153361291482)
(1537.41317907888 -38.5595802219117 26.0497707166736)
(1800.69738715248 -207.906687583547 -127.400705434328)
(1468.10170818347 279.52933324328 -174.224704494685)
(1973.13702770613 95.2681151308866 -285.064960257054)
(1525.81273932942 -275.405033089211 -496.747370427975)
(1551.82825079245 -329.323997904194 346.861109178897)
(1652.06500469797 218.979909371362 781.58122524889)
(1490.22794018203 -7.07439177843652 313.880119274778)
(1238.42038694675 12.6284610209378 356.421430249774)
(2747.09982028833 122.250666746683 -136.745565588969)
(1852.02113515495 -88.4888019556679 -44.4735883956611)