/*--------------------------------*- C++ -*----------------------------------*\
| =========                 |                                                 |
| \\      /  F ield         | OpenFOAM: The Open Source CFD Toolbox           |
|  \\    /   O peration     | Version:  2406                                  |
|   \\  /    A nd           | Website:  www.openfoam.com                      |
|    \\/     M anipulation  |                                                 |
\*---------------------------------------------------------------------------*/
FoamFile
{
    version     2.0;
    format      ascii;
    arch        "LSB;label=32;scalar=64";
    class       Cloud<dsmcParcel>;
    location    "0/lagrangian/dsmc";
    object      coordinates;
}
// * * * * * * * * * * * * * * * * * * * * * * * * * * * * * * * * * * * * * //

6281
(
(0.269573905749149 0.223210048678193 0.424211799239258 0.0830042463334001) 0 1 2
(0.0315851908696378 0.612942264926958 0.123151508844768 0.232321035358636) 0 1256 1
(0.328517628216589 0.367378289077172 0.0392385823008153 0.264865500405424) 0 1278 1
(0.606251895415136 0.169456000950932 0.0450006136373333 0.179291489996599) 0 1278 1
(0.288838390646199 0.156667804438594 0.0690185500992253 0.485475254815982) 0 1308 1
(0.224818319267746 0.522562005749809 0.237841437133095 0.0147782378493498) 0 1308 2
(0.120076693321737 0.397243319608608 0.0186429222021445 0.46403706486751) 1 3 2
(0.194061602154785 0.674888231366901 0.0416462306191013 0.0894039358592131) 1 1279 1
(0.176901190862793 0.154979642255687 0.45205930111417 0.21605986576735) 1 1279 1
(0.114042638688259 0.117072431845935 0.12852056318701 0.640364366278795) 1 1279 2
(0.242572967720634 0.150428189201514 0.395468048962862 0.211530794114991) 1 1330 2
(0.168756185178351 0.0742152219780966 0.0654477194827237 0.691580873360829) 1 1984 1
(0.371981897075662 0.300933117904564 0.117006842235656 0.210078142784118) 1 0 1
(0.258091400451879 0.601604341641275 0.100811816037717 0.0394924418691291) 1 0 2
(0.135192921508044 0.25758249416317 0.503705847767941 0.103518736560844) 2 4 1
(0.471819041115682 0.0740266341553327 0.285305202249291 0.168849122479695) 2 4 2
(0.16851363228765 0.213259819001543 0.45069386595547 0.167532682755337) 2 5 1
(0.00881880500806353 0.38973992252725 0.429397813648209 0.172043458816478) 2 1280 2
(0.0805225690546241 0.300866560011233 0.469792893966572 0.148817976967571) 2 1352 1
(0.624403904561512 4.18834653415356e-05 0.173172381756671 0.202381830216475) 2 1352 2
(0.261875765744595 0.0393220883638291 0.363576657817299 0.335225488074277) 2 2006 2
(0.20647097027968 0.282914931154227 0.311987132084917 0.198626966481177) 3 6 2
(0.319195968819455 0.182783772224247 0.466238578726765 0.0317816802295325) 3 7 1
(0.685351528539708 0.0644559086536503 0.123863528583492 0.12632903422315) 3 7 2
(0.210124889103725 0.0570610100383621 0.137987145380681 0.594826955477232) 3 1281 2
(0.739181516017244 0.0245404029006393 0.200095892605311 0.0361821884768064) 3 1374 1
(0.737216537290751 0.00616928290252929 0.10745049949422 0.1491636803125) 3 1374 2
(0.355258050912489 0.123323620989134 0.252926330724665 0.268491997373712) 3 2028 1
(0.125105515830381 0.135968754892885 0.657039548406787 0.0818861808699464) 3 2028 2
(0.0670159647155598 0.0853446227047388 0.704566369033443 0.143073043546258) 3 4 1
(0.588199090181619 0.0539735533946188 0.0893132645786977 0.268514091845065) 4 8 1
(0.13768366098603 0.214106557501564 0.57986198850872 0.068347793003686) 4 9 2
(0.532013280398884 0.0340728707759407 0.383755035587563 0.0501588132376127) 4 1282 1
(0.554872520261082 0.119378135916528 0.0600772250451866 0.265672118777203) 4 1282 1
(0.0303348475375173 0.369303963695238 0.466215445431749 0.134145743335496) 4 1282 2
(0.161902940239103 0.0947319671188375 0.675952514359332 0.0674125782827273) 4 1282 2
(0.353757266613565 0.389197131868621 0.039414531460069 0.217631070057746) 4 1396 1
(0.06510685786727 0.0285735797505556 0.540298224397522 0.366021337984652) 4 1396 2
(0.117276512478958 0.113134381589477 0.206517110501276 0.563071995430289) 4 2050 1
(0.28409824240802 0.287952281499133 0.196289671772947 0.2316598043199) 4 2050 1
(0.698442465048798 0.0291005844494297 0.251752171841426 0.0207047786603462) 4 2050 2
(0.566221357943664 0.0323994331174437 0.387700041369156 0.0136791675697372) 4 6 1
(0.544955904776019 0.0672735251414866 0.040913697332813 0.346856872749681) 4 6 1
(0.0706907735192591 0.730124912277707 0.0325736003800913 0.166610713822943) 4 6 2
(0.230952774322593 0.272719959408387 0.0219069358933763 0.474420330375644) 5 10 1
(0.335070216901875 0.147439669434556 0.235078181376063 0.282411932287506) 5 11 1
(0.112379876318906 0.167229005190916 0.0805411656270178 0.63984995286316) 5 11 1
(0.394508164802225 0.326005719345228 0.0295806576667563 0.249905458185791) 5 1418 2
(0.403032158290511 0.00181772588776588 0.00965321715126644 0.585496898670457) 5 2072 1
(0.274821402407545 0.234234229943692 0.463837947264708 0.0271064203840555) 5 2072 2
(0.44892544973675 0.362354090145354 0.0242233714798235 0.164497088638073) 5 8 1
(0.15867668542709 0.0717308394876517 0.184269852586274 0.585322622498984) 5 8 1
(0.0374870447263196 0.418242133120413 0.0698247503982483 0.474446071755019) 5 8 2
(0.02630035370484 0.612690971148191 0.136817955137805 0.224190720009164) 6 12 2
(0.425983705826551 0.15833797448298 0.371453472309674 0.0442248473807951) 6 13 1
(0.0550886150153292 0.634691609020903 0.291333057282475 0.0188867186812926) 6 13 2
(0.588648755116631 0.0745506889817157 0.000961704071603786 0.33583885183005) 6 1284 1
(0.226973349450228 0.137456965666956 0.484956830484567 0.150612854398249) 6 1284 2
(0.165647603997296 0.778822505898712 0.0293751831231007 0.0261547069808908) 6 1440 1
(0.318805967703342 0.201056391162616 0.375548523175193 0.104589117958849) 6 1440 1
(0.1986510278081 0.106496818306137 0.00465018225953541 0.690201971626228) 6 1440 2
(0.0496378230028653 0.491007772885975 0.105601992058744 0.353752412052417) 6 2094 1
(0.348066573066575 0.312288051154991 0.12747569122399 0.212169684554445) 6 2094 1
(0.562496144665791 0.0681893392294178 0.22065145078612 0.148663065318671) 6 10 1
(0.353452606877886 0.236959714070668 0.0374224047285173 0.372165274322929) 7 14 2
(0.0982066743061096 0.0695031198939646 0.0867892651743509 0.745500940625575) 7 15 1
(0.220265226707454 0.488125590886768 0.203150427903558 0.0884587545022198) 7 15 2
(0.547144561018578 0.396353557783084 0.0113089410119825 0.045192940186356) 7 1285 1
(0.460835118517429 0.0114382965905829 0.255028234443618 0.27269835044837) 7 1285 2
(0.0506203687224217 0.161576357584301 0.44623399512167 0.341569278571607) 7 1462 1
(0.0118441348834895 0.371706929520809 0.397420748985483 0.219028186610218) 7 1462 1
(0.139823274860686 0.0969730344295026 0.485049418241892 0.278154272467919) 7 1462 2
(0.0608991808596714 0.104744587422171 0.525524057676365 0.308832174041792) 7 2116 1
(0.33262933725584 0.140916338558374 0.241954884273362 0.284499439912424) 7 2116 2
(0.161877347011831 0.0517833891739909 0.599237500156685 0.187101763657493) 7 12 1
(0.0796995348052204 0.665518124981468 0.120373222091674 0.134409118121638) 8 16 1
(0.000530577578784941 0.218895847372311 0.22800661354979 0.552566961499115) 8 16 2
(0.143650575376314 0.0866861364717866 0.226227787006235 0.543435501145665) 8 1286 1
(0.0334835840011595 0.787815619117189 0.126784854920227 0.0519159419614239) 8 1286 1
(0.0496859105946308 0.0575957605234585 0.0402375158564664 0.852480813025444) 8 1286 2
(0.824667942086551 0.0850923649780481 0.0569997318149922 0.0332399611204092) 8 1286 2
(0.238142597792487 0.330818589043904 0.1633545734756 0.267684239688009) 8 1484 1
(0.055080183681935 0.0539079594886392 0.239868276751782 0.651143580077644) 8 1484 2
(0.0429434403390093 0.263910846566249 0.683657688127799 0.00948802496694297) 8 2138 1
(0.18463319760823 0.353992752333606 0.242162169906898 0.219211880151266) 8 14 1
(0.109057589261924 0.42149175326357 0.38634244181615 0.0831082156583552) 8 14 2
(0.084089183915527 0.578807507099474 0.221101575597328 0.116001733387671) 9 18 1
(0.27269915108528 0.183161837072031 0.319347610531185 0.224791401311504) 9 19 1
(0.160425052381359 0.103999655814232 0.410333348045057 0.325241943759351) 9 1287 2
(0.578180007915953 0.201777027243599 0.193594421679086 0.026448543161361) 9 1506 1
(0.0859927516833455 0.232574450995562 0.0473197766671313 0.634113020653961) 9 1506 2
(0.0704324056023682 0.196143351320981 0.11319816638404 0.620226076692611) 9 2160 1
(0.0397557026954602 0.195188107034352 0.252901895508179 0.512154294762009) 9 2160 2
(0.178753467672475 0.0260825811432751 0.622282290274198 0.172881660910051) 9 16 1
(0.39576288111017 0.207814468159392 0.194802411148256 0.201620239582182) 9 16 2
(0.0339696995923423 0.602864610983384 0.126059117709143 0.23710657171513) 10 20 2
(0.398427667401174 0.314109883035687 0.160253828136957 0.127208621426183) 10 20 2
(0.71418232920989 0.128052452132494 0.0178857073378166 0.1398795113198) 10 21 1
(0.0993131204567139 0.625247324874976 0.181441023179629 0.093998531488681) 10 1528 1
(0.385120231468 0.281204745306819 0.215568186198494 0.118106837026687) 10 18 1
(0.153105277154045 0.465805691230457 0.327642161867449 0.0534468697480484) 10 18 2
(0.17330597231796 0.515432564199719 0.0484186025231273 0.262842860959193) 11 22 2
(0.342590474935175 0.322878437378842 0.279391789133921 0.0551392985520616) 11 23 1
(0.330731905495036 0.0697343653309478 0.012975460650135 0.586558268523881) 11 1289 1
(0.401400767212368 0.113655185303697 0.411861474149073 0.0730825733348622) 11 1289 2
(0.160199785284974 0.216798806727049 0.589929466772681 0.0330719412152961) 11 1550 1
(0.294452734045393 0.388348145152658 0.249873857042432 0.0673252637595162) 11 1550 2
(0.32331763417771 0.0956316272735573 0.161922365842147 0.419128372706586) 11 2204 1
(0.350865948968369 0.104907405555835 0.217438827598853 0.326787817876942) 11 2204 2
(0.0397025537390782 0.0640271355742585 0.885573005772209 0.0106973049144546) 11 20 1
(0.620510532551726 0.147149496529574 0.0586162956682469 0.173723675250453) 11 20 2
(0.672667324524418 0.210685485960109 0.0514295744270638 0.0652176150884089) 12 24 2
(0.453678249940007 0.0686832915571015 0.172560505204359 0.305077953298533) 12 24 2
(0.149884163531668 0.342513491562148 0.05112425640645 0.456478088499734) 12 25 1
(0.486147525491538 0.0356410081959094 0.323734295464323 0.154477170848229) 12 25 2
(0.448392934818204 0.246298241158357 0.00757426395859549 0.297734560064843) 12 1572 1
(0.0743632669138699 0.627821797899151 0.0733167073699037 0.224498227817075) 12 1572 2
(0.559436514699934 0.0141557193975916 0.267315397027196 0.159092368875278) 12 2226 1
(0.582986412786464 0.251796563841393 0.0399496122637232 0.12526741110842) 12 2226 2
(0.560714610125257 0.159153632397587 0.0237974538285846 0.256334303648572) 12 22 1
(0.184738491963234 0.350882853810691 0.290708029458135 0.17367062476794) 12 22 1
(0.163607114030566 0.176294284786287 0.398147770389328 0.261950830793819) 12 22 2
(0.158545522066563 0.0364338656245688 0.38897632042091 0.416044291887959) 13 26 1
(0.0525394108951885 0.0844076936921566 0.381736704084935 0.48131619132772) 13 26 2
(0.39000053769671 0.227696491466454 0.193184443364307 0.189118527472528) 13 27 1
(0.110194205066107 0.346767555571629 0.232351105894313 0.310687133467951) 13 1291 1
(0.533828871598556 0.241542165249926 0.00392612210894052 0.220702841042577) 13 1291 1
(0.142300001270908 0.636590639880814 0.0674069719626279 0.153702386885649) 13 1291 2
(0.0527066257654849 0.0445936021217662 0.570614277726509 0.33208549438624) 13 1291 2
(0.132846737159226 0.611476196052197 0.24972150706888 0.00595555971969773) 13 2248 1
(0.253389665117152 0.441660515812507 0.0756603783477141 0.229289440722627) 13 2248 2
(0.0225951606664706 0.379609352342483 0.588492844588424 0.00930264240262159) 13 24 2
(0.446242469654945 0.266302865894166 0.194005492285761 0.0934491721651278) 14 28 1
(0.188274010715786 0.0276592193752721 0.524306459457673 0.259760310451269) 14 28 2
(0.111679211897165 0.286576461862606 0.253632815423806 0.348111510816423) 14 29 2
(0.258881263349911 0.00223529968407331 0.55671011170445 0.182173325261566) 14 1292 1
(0.00394064503580438 0.0354405469500621 0.61091860860271 0.349700199411424) 14 1616 1
(0.362682345914012 0.0305035193698513 0.167671233181126 0.439142901535011) 14 1616 1
(0.24887752207022 0.499197015184904 0.110311811055693 0.141613651689184) 14 2270 1
(0.296802476134439 0.269323780585703 0.118282381802436 0.315591361477422) 14 2270 2
(0.0669390249580216 0.379432632783618 0.180267592064016 0.373360750194345) 14 26 2
(0.367085593561899 0.12233746232438 0.257008736162644 0.253568207951077) 15 30 1
(0.214767224536463 0.0102886679379415 0.186819013842427 0.588125093683169) 15 30 2
(0.514318126704435 0.182430164485694 0.227096175588412 0.076155533221459) 15 31 2
(0.0564725823138817 0.155352667821096 0.387134453038678 0.401040296826344) 15 31 2
(0.107438897255715 0.690753034719461 0.0202627663116618 0.181545301713162) 15 1293 2
(0.0363129625384151 0.643085546181654 0.043903663023381 0.27669782825655) 15 1638 1
(0.00919296655786528 0.0171415288738282 0.315632549636745 0.658032954931562) 15 1638 2
(0.0356361499327255 0.113596220199007 0.556916028730583 0.293851601137685) 15 2292 1
(0.338622754749672 0.2701024776332 0.0488485139044492 0.342426253712679) 15 28 1
(0.0335714522993833 0.150262343962199 0.681322395993891 0.134843807744526) 16 32 1
(0.124136081076139 0.652377337708478 0.113695966891597 0.109790614323786) 16 32 2
(0.157142543092413 0.145654220169191 0.445807169864169 0.251396066874227) 16 33 1
(0.0172562685074725 0.302589646562354 0.0424793884543459 0.637674696475828) 16 33 1
(0.00333599150870467 0.217140357208212 0.519710555106499 0.259813096176585) 16 33 2
(0.193831761959472 0.292077399874301 0.491087341530755 0.0230034966354719) 16 1294 1
(0.268347565301563 0.342480225928249 0.242224159897338 0.14694804887285) 16 1660 2
(0.00314825355778159 0.693928997888741 0.0214261646672664 0.281496583886211) 16 2314 2
(0.25419446732879 0.399473505742168 0.109571619610311 0.236760407318731) 17 34 1
(0.019480916268347 0.300250131883661 0.606049985034659 0.0742189668133326) 17 34 2
(0.797444783252579 0.0110158259907921 0.04904861424397 0.142490776512659) 17 1295 1
(0.434480320048243 0.142151606664957 0.278894183808256 0.144473889478544) 17 1295 2
(0.577579666925869 0.1189504974922 0.0406953599013975 0.262774475680534) 17 1682 1
(0.517888553979057 0.398777611608424 0.000722274024258477 0.0826115603882605) 17 1682 1
(0.257230376304409 0.00447736751899089 0.222051612678359 0.516240643498241) 17 1682 2
(0.208168110413872 0.441901891131234 0.331219542418115 0.0187104560367795) 17 2336 1
(0.0746775230583683 0.282628205973713 0.268961621776322 0.373732649191597) 18 36 1
(0.702974958102576 0.138440809036238 0.0988648341555137 0.0597193987056721) 18 1296 1
(0.317643581972052 0.257083315616942 0.324621059444857 0.100652042966148) 18 1296 2
(0.365095009704694 0.304606625294584 0.271756869218796 0.0585414957819265) 18 1296 2
(0.0376049004667779 0.00672218964714312 0.496317832999755 0.459355076886324) 18 2358 1
(0.188598405353796 0.427118900951734 0.153658341414139 0.230624352280331) 18 34 2
(0.00407315622607152 0.29274948321174 0.347913807666583 0.355263552895606) 18 34 2
(0.132373899621172 0.343185984401892 0.065651066397223 0.458789049579713) 19 38 2
(0.0914730833661224 0.00958220478906182 0.344155661331333 0.554789050513483) 19 39 1
(0.287373500327318 0.354637468332314 0.235924318708288 0.122064712632081) 19 39 2
(0.286384909252802 0.0236010838590643 0.29799761550552 0.392016391382614) 19 39 2
(0.0277342154794685 0.138562210915673 0.220657320173048 0.61304625343181) 19 1297 2
(0.359276009867628 0.399329898937016 0.0410713031708005 0.200322788024555) 19 1726 2
(0.505660437694021 0.0536104076000825 0.216886955642218 0.223842199063678) 19 2380 1
(0.0379196320898673 0.430678242243708 0.187122083545721 0.344280042120703) 19 2380 2
(0.0549688806778026 0.0378720023132801 0.441788220875989 0.465370896132929) 19 36 1
(0.398460734993697 0.123790264527471 0.442279851870713 0.0354691486081194) 20 40 1
(0.42647704558336 0.0287465970040386 0.445240938123549 0.0995354192890527) 20 41 1
(0.17815780109871 0.217101107976902 0.391543519035878 0.21319757188851) 20 41 2
(0.157043172474178 0.210355201674868 0.45775670387965 0.174844921971304) 20 1257 2
(0.239141199681435 0.52133927076392 0.204328665259601 0.0351908642950445) 20 1309 2
(0.180720590993382 0.494543317962592 0.093979838287408 0.230756252756618) 20 1963 2
(0.237196087866611 0.215340702710926 0.0843043181391091 0.463158891283353) 20 1 1
(0.334719727910392 0.0272868729474364 0.158045121080803 0.479948278061368) 21 42 1
(0.0494241100391 0.193144295805273 0.192831154761517 0.56460043939411) 21 42 2
(0.341671472397099 0.480508465335925 0.039873132935598 0.137946929331379) 21 43 2
(0.190770369717678 0.0934666489292644 0.192669407324227 0.52309357402883) 21 1331 1
(0.639726652587066 0.0752207138914748 0.114195307056502 0.170857326464957) 21 3 2
(0.400638832024362 0.441283179449858 0.116091428675744 0.0419865598500358) 21 40 1
(0.00120709507152383 0.669044425142475 0.0242877088596541 0.305460770926347) 21 40 2
(0.287812772409161 0.149051000282036 0.122620479265071 0.440515748043732) 22 44 1
(0.279929613599161 0.0494445917726872 0.526169859606547 0.144455935021605) 22 44 2
(0.217532348465598 0.196840975472392 0.563049919492728 0.0225767565692819) 22 45 1
(0.306930187620353 0.192692772627389 0.137732673282185 0.362644366470073) 22 45 2
(0.226683039283294 0.200349912624924 0.41647490889404 0.156492139197741) 22 1353 2
(0.149144772039836 0.168076998181156 0.188306883948732 0.494471345830277) 22 2007 1
(0.328309549907757 0.254294196416146 0.0223386332459747 0.395057620430122) 22 5 1
(0.292848359501767 0.589340817516223 0.114406904926702 0.00340391805530792) 22 42 1
(0.393882442100422 0.123073641469077 0.42208997494067 0.0609539414898304) 23 46 1
(0.446260163675615 0.0927923825705533 0.206620582971981 0.254326870781851) 23 46 2
(0.0954157279045657 0.474647966401338 0.142590904993028 0.287345400701068) 23 1375 1
(0.0419164333317623 0.38014791560693 0.238546509877616 0.339389141183692) 23 1375 1
(0.00203100001053658 0.288514292982968 0.5252147501962 0.184239956810296) 23 1375 2
(0.686060120148731 0.0349227246564784 0.194849095783334 0.0841680594114566) 23 2029 2
(0.0746776866664417 0.342718738776982 0.338700654758581 0.243902919797996) 23 2029 2
(0.0754831618753328 0.162211995059781 0.458111770817169 0.304193072247717) 23 44 2
(0.178960106939233 0.23981098751448 0.0703254510868439 0.510903454459443) 24 48 2
(0.580605648269942 0.0493255189981945 0.190977581615822 0.179091251116041) 24 49 1
(0.138902880717003 0.24448930446217 0.21694252623587 0.399665288584956) 24 2051 1
(0.0701168699249766 0.388632073546428 0.233598269130316 0.30765278739828) 24 9 1
(0.141144951525109 0.710611712785675 0.0828197313924632 0.0654236042967525) 24 9 2
(0.1964971372414 0.412841521161292 0.115584838113168 0.27507650348414) 24 46 1
(0.103317382543146 0.652191453316531 0.118760463688408 0.125730700451915) 24 46 1
(0.0346157326111681 0.524334423419275 0.304941624542214 0.136108219427344) 24 46 2
(0.370494573526352 0.140127137950222 0.301682607910633 0.187695680612793) 25 51 1
(0.0188259206593175 0.490646607514996 0.183275475255232 0.307251996570455) 25 51 2
(0.232668546441129 0.0420691811358999 0.328162535124537 0.397099737298434) 25 1419 2
(0.238950529130668 0.34313863433183 0.0607194820616227 0.35719135447588) 25 2073 1
(0.0218508127106691 0.185304674697983 0.611265484540046 0.181579028051302) 25 2073 2
(0.338596917284503 0.141663415957557 0.0179662994262348 0.501773367331705) 25 11 1
(0.0777947339387517 0.129097477525135 0.0560716079373857 0.737036180598728) 25 48 1
(0.265794663164518 0.0202807180945509 0.0893914151374488 0.624533203603482) 26 52 1
(0.191474961834683 0.17758651274179 0.29253721094635 0.338401314477176) 26 52 2
(0.0873011050373081 0.524146885603259 0.346847921521159 0.0417040878382734) 26 53 2
(0.349228109434395 0.0651825736416133 0.54011312816454 0.0454761887594512) 26 1441 1
(0.334013079381506 0.0243442447319448 0.00186496411189489 0.639777711774654) 26 1441 1
(0.192691099953798 0.0944798305462839 0.138157559925844 0.574671509574073) 26 1441 2
(0.298142021044752 0.115042038995511 0.578025162232202 0.00879077772753508) 26 2095 1
(0.184222253934045 0.0535406244133438 0.525307438401036 0.236929683251574) 26 2095 2
(0.0360385063933337 0.444656120020265 0.441627961352558 0.0776774122338436) 26 13 1
(0.705271357244932 0.0394377491317488 0.0667671797310819 0.188523713892237) 26 13 1
(0.286527757681372 0.189286076161984 0.338504303701847 0.185681862454797) 26 13 2
(0.108374460993331 0.0518530324136748 0.346893775580699 0.492878731012295) 27 55 1
(0.338176054016184 0.0077128776121891 0.0809638970078604 0.573147171363766) 27 55 2
(0.214795514159308 0.0885128506227952 0.254170857826063 0.442520777391834) 27 1463 2
(0.0209563591391991 0.759208336880056 0.0452199905638955 0.17461531341685) 27 52 1
(0.00992540959985289 0.364441446410769 0.23283618643398 0.392796957555398) 28 56 1
(0.248830471885516 0.29083867944024 0.123655317215718 0.336675531458525) 28 57 1
(0.120842718624511 0.234045998667624 0.208676777346649 0.436434505361216) 28 2139 1
(0.0858323360169967 0.0923546368364794 0.6678675282464 0.153945498900124) 28 2139 1
(0.311693300215506 0.00590198491783819 0.232480595665545 0.449924119201111) 28 2139 2
(0.163311081817878 0.493146099826443 0.0335004261126515 0.310042392243027) 28 17 1
(0.0964385592777256 0.455866428858988 0.40272735689806 0.0449676549652266) 28 54 1
(0.101249604964557 0.419317827872117 0.42593870401629 0.0534938631470366) 29 58 1
(0.234730420531183 0.619909273453703 0.00469346221947896 0.140666843795635) 29 58 1
(0.179973398691256 0.0746654331222367 0.245984508810811 0.499376659375696) 29 58 2
(0.385692802588297 0.144110715790895 0.198908544365119 0.271287937255689) 29 59 1
(0.59035298918557 0.00344899581082099 0.218207174176993 0.187990840826615) 29 59 1
(0.148875306709235 0.1686196027802 0.0248372576239581 0.657667832886607) 29 59 2
(0.722131986960702 0.191303529391578 0.00782172683519096 0.0787427568125286) 29 1507 2
(0.131681407365861 0.23361010758797 0.613265786220429 0.021442698825739) 29 2161 1
(0.474024525250946 0.229163586301403 0.288132318940846 0.00867956950680477) 29 2161 2
(0.118805199723178 0.154135862325266 0.1668640028104 0.560194935141157) 29 19 1
(0.187164968662032 0.24999346294858 0.199870340637647 0.362971227751741) 29 19 2
(0.0281079899914937 0.583640149381385 0.046290899219544 0.341960961407577) 29 19 2
(0.0878876475035304 0.703555544767294 0.140481371239806 0.0680754364893694) 30 60 2
(0.328992066148403 0.109819757887865 0.443941042443702 0.11724713352003) 30 61 1
(0.314419621001633 0.065958827911127 0.0178862415247252 0.601735309562515) 30 61 2
(0.0419674853632446 0.469523063530119 0.0889689984550827 0.399540452651553) 30 1529 1
(0.13385006113458 0.53420994474609 0.302086110513923 0.0298538836054077) 30 1529 2
(0.0388782911714278 0.299400694793634 0.206625710706494 0.455095303328444) 30 2183 1
(0.203015983884843 0.408654556447227 0.196389096935153 0.191940362732778) 30 2183 2
(0.136528927482321 0.0215481393250111 0.182779855145537 0.659143078047131) 30 21 1
(0.135492512354964 0.0334985039668481 0.471312935068239 0.359696048609949) 30 21 2
(0.22081132722934 0.13825592654738 0.386085459128632 0.254847287094648) 30 21 2
(0.272226378435087 0.429408158459557 0.0150299979008537 0.283335465204503) 30 58 1
(0.267999529212619 0.334686219683389 0.146513910688301 0.250800340415692) 30 58 2
(0.830041677904901 0.131661838710136 0.0200253037524487 0.0182711796325143) 31 62 1
(0.422021033363638 0.208649168782605 0.211183890702701 0.158145907151056) 31 62 2
(0.103118963376604 0.477799356489678 0.137946676117577 0.28113500401614) 31 63 1
(0.534231130644559 0.147228167804259 0.277320742334793 0.0412199592163881) 31 63 2
(0.0332199211471544 0.31368543337037 0.443654050521728 0.209440594960747) 31 1551 1
(0.0360563963392163 0.209355364747626 0.390269004177506 0.364319234735652) 31 1551 2
(0.386074306222612 0.157675439570526 0.0975917408838241 0.358658513323037) 31 2205 2
(0.180823375178607 0.0283820091825868 0.357865501312831 0.432929114325975) 31 23 1
(0.339639487366204 0.254075834720291 0.265014228765893 0.141270449147613) 31 23 2
(0.302569204658768 0.402513185844056 0.251992643134564 0.0429249663626119) 31 60 1
(0.336111935994576 0.314791514309554 0.00348350804103494 0.345613041654835) 31 60 1
(0.306383610384971 0.0607459588341906 0.606231008726328 0.0266394220545109) 32 64 1
(0.0386579798992941 0.0079021610292768 0.608947857357649 0.344492001713781) 32 64 2
(0.0322602095031058 0.692331665710633 0.18479526014392 0.0906128646423412) 32 65 1
(0.246859423788728 0.695896491562238 0.000879402893492651 0.0563646817555412) 32 1573 1
(0.0651037702561459 0.548953998585854 0.221218041894552 0.164724189263448) 32 2227 1
(0.0262304797970649 0.179709457188229 0.784710347539007 0.00934971547569822) 32 2227 2
(0.225991098267269 0.0480239339009013 0.121227201229203 0.604757766602626) 32 25 1
(0.246649894327946 0.360621254029241 0.233563083571788 0.159165768071025) 33 66 2
(0.203866125956007 0.0437102802612813 0.232072203657721 0.520351390124991) 33 67 1
(0.0483895043720111 0.0725433443920982 0.4786885638423 0.400378587393591) 33 67 2
(0.415907306078805 0.109446498950831 0.111931540348447 0.362714654621917) 33 67 2
(0.111491922388988 0.170313876730563 0.372600069134582 0.345594131745867) 33 1595 2
(0.0443085322095758 0.933079550452731 0.00690666199118412 0.0157052553465089) 33 1595 2
(0.0755147503102662 0.0433891083591734 0.688130465756791 0.192965675573769) 33 2249 1
(0.0774055425415819 0.280872649626655 0.288918280708044 0.352803527123719) 33 2249 2
(0.0190282204357292 0.158212921332842 0.190846625914275 0.631912232317154) 33 64 2
(0.0112023940475084 0.266388492589803 0.550877069378629 0.17153204398406) 33 64 2
(0.535058864290005 0.0588659718483922 0.0471209429017349 0.358954220959868) 34 68 1
(0.139012385183932 0.0412583691385561 0.760673073973397 0.0590561717041141) 34 69 1
(0.0124194004539031 0.154440885276506 0.574654320308935 0.258485393960656) 34 69 2
(0.325343776184743 0.0942621552257283 0.419012080693142 0.161381987896387) 34 69 2
(0.274649517661977 0.0833497315813433 0.283680867672368 0.358319883084312) 34 1617 1
(0.189402445879457 0.217510825506789 0.328821079042925 0.26426564957083) 34 2271 1
(0.150829153539678 0.582575117974299 0.135973246634659 0.130622481851364) 34 2271 1
(0.10537367541508 0.461359939235075 0.117715333176613 0.315551052173232) 34 2271 2
(0.214745356867592 0.487092562635405 0.0435787543838978 0.254583326113104) 34 29 1
(0.418461446728516 0.356722295637081 0.154433608658051 0.0703826489763521) 34 29 2
(0.0628779941604192 0.695010007640816 0.00434750886930727 0.237764489329458) 34 66 1
(0.00193997616751096 0.125445244637764 0.762848727878747 0.109766051315978) 34 66 2
(0.220674556584093 0.49625150193389 0.256707191171235 0.0263667503107818) 35 70 1
(0.727438340501593 0.063070204464461 0.0227361430707993 0.186755311963147) 35 70 2
(0.109090004135306 0.76852348316371 0.111239900151391 0.0111466125495926) 35 71 1
(0.421931297293494 0.220136782986261 0.333012576776247 0.024919342943998) 35 1639 2
(0.396125311519799 0.223348702300353 0.264003062293281 0.116522923886566) 35 2293 1
(0.76572885465357 0.116065580845675 0.0403474019075348 0.0778581625932205) 35 31 2
(0.0960902895493951 0.528801682193287 0.0570841617213586 0.31802386653596) 35 31 2
(0.265312222101234 0.407259117099743 0.173476375274498 0.153952285524525) 35 68 1
(0.0319815249859826 0.707089413934552 0.185220578131949 0.0757084829475169) 35 68 1
(0.252038589172144 0.337737842879399 0.232163918575904 0.178059649372553) 35 68 2
(0.323816753676554 0.156794916222324 0.16073899514943 0.358649334951692) 36 72 1
(0.231400757029408 0.242733108285141 0.197969438872553 0.327896695812898) 36 72 2
(0.0722346215055827 0.303948475195313 0.297892692381778 0.325924210917326) 36 73 1
(0.0331757698298491 0.32036666571575 0.308333774025416 0.338123790428985) 36 73 2
(0.248675539051177 0.246831162554435 0.149925740558527 0.354567557835861) 36 1661 1
(0.357958566332011 0.500903250850838 0.0367242741530469 0.104413908664104) 36 1661 2
(0.748684159438503 0.051426801357291 0.0284341576949947 0.171454881509212) 36 2315 1
(0.0901961182375894 0.114725097763624 0.402747729467067 0.39233105453172) 36 2315 2
(0.160656822300922 0.00814833433175807 0.79113467191454 0.0400601714527795) 36 33 2
(0.467494722055776 0.122813258306398 0.134342983334165 0.275349036303662) 36 70 1
(0.055292343423077 0.280131833372123 0.500702595332888 0.163873227871912) 36 70 2
(0.00649071414426661 0.482641955393529 0.230664133543609 0.280203196918596) 37 74 1
(0.413511555933005 0.317817181449438 0.167099908922186 0.10157135369537) 37 74 1
(0.0855195731339287 0.459950303861997 0.070779585593984 0.383750537410091) 37 74 2
(0.096225260907662 0.0520815345734714 0.559573735779305 0.292119468739561) 37 75 2
(0.237229680544734 0.145533205340345 0.590692173449288 0.0265449406656339) 37 2337 1
(0.0294267771100961 0.635006472308064 0.0128340059682874 0.322732744613553) 37 35 1
(0.365023051178625 0.238404211961026 0.268955296396786 0.127617440463563) 37 35 2
(0.0807110660487975 0.270153463614451 0.606506555319245 0.0426289150175069) 37 72 1
(0.17600836189888 0.159114588576443 0.155540725985482 0.509336323539195) 37 72 1
(0.207370850681994 0.0183474114297551 0.248813474968033 0.525468262920218) 37 72 2
(0.0199181380550355 0.678952370833498 0.163567936741358 0.137561554370108) 37 72 2
(0.261099102845429 0.193256047050723 0.463140539625075 0.0825043104787727) 38 76 1
(0.411324526373389 0.3455657749093 0.15375407051258 0.0893556282047314) 38 76 1
(0.0157946530104588 0.0113429682538307 0.302990676899811 0.669871701835899) 38 76 2
(0.10974930391506 0.383551684908112 0.440696123313365 0.0660028878634627) 38 76 2
(0.318245586215115 0.225682355710183 0.407157662815368 0.048914395259335) 38 77 2