/*--------------------------------*- C++ -*----------------------------------*\
| =========                 |                                                 |
| \\      /  F ield         | OpenFOAM: The Open Source CFD Toolbox           |
|  \\    /   O peration     | Version:  2406                                  |
|   \\  /    A nd           | Website:  www.openfoam.com                      |
|    \\/     M anipulation  |                                                 |
\*---------------------------------------------------------------------------*/
FoamFile
{
    version     2.0;
    format      ascii;
    arch        "LSB;label=32;scalar=64";
    class       scalarField;
    location    "0/lagrangian/dsmc";
    object      Ei;
}
// * * * * * * * * * * * * * * * * * * * * * * * * * * * * * * * * * * * * * //


6281
(
8.52712175071178e-21
6.29713208075107e-21
2.28511199789637e-21
3.43013785286727e-21
2.64736219877662e-21
1.20707602157359e-21
3.36241264675989e-21
1.38016967064521e-21
1.37252876661239e-21
9.78333826616986e-22
2.84630759796216e-22
5.77143720291277e-24
5.03137209275844e-21
4.55145535188214e-22
4.89946794995282e-21
1.02658619194891e-21
1.13450955693596e-20
3.15540117056591e-21
1.04158764450839e-20
1.09484673414928e-21
4.35557065459327e-22
2.0777305801655e-22
4.09154905166762e-21
1.30399560576485e-21
1.48082128568422e-21
9.574757745461e-21
8.83400262474264e-22
3.53670694143914e-21
2.87362651910068e-21
7.64004135216274e-21
1.09799995422517e-21
5.80666498503468e-22
3.81639698752643e-21
6.81580119866598e-21
1.71989131206076e-21
1.99352867431563e-22
4.5573961112082e-22
5.09392325087305e-21
6.19626106811189e-21
2.00738865022067e-21
1.25425708980979e-20
1.06915487990387e-21
6.82620663940705e-22
4.95969549668525e-22
3.15995869186462e-21
6.84904209429791e-21
9.32781570091149e-22
5.57226278582145e-22
4.1268178237801e-21
4.50956002877818e-21
4.02317994376314e-21
3.71777187668242e-21
5.19802967605335e-21
1.01683567625512e-20
5.53998110845228e-21
3.45660127895064e-21
1.75075224479271e-21
2.14489002985009e-21
2.61278890917237e-21
4.79512678826619e-22
5.13096155862417e-21
6.03848993813056e-21
6.77541204798277e-21
2.73297736099325e-21
2.87866808587981e-22
6.82405985768946e-22
2.45292964536564e-23
3.60934927532498e-21
1.03138160758991e-20
2.62882939603602e-21
1.72004792324136e-22
1.33763202851474e-21
6.26910677466126e-21
7.14618828308483e-21
4.48983516233145e-21
1.37163733663219e-22
1.50603040605426e-21
1.3603334956551e-21
5.31323314370847e-21
1.07872658347623e-21
4.90711058722353e-21
1.62648605991898e-21
1.74558834521174e-20
5.69616449286853e-21
3.14923174149785e-21
2.70401773683202e-23
5.34947740761848e-21
2.01293019109292e-21
5.22827207716108e-21
3.39412232278155e-21
2.42188072037932e-21
3.51181786728224e-21
2.52025881480203e-21
1.38100920967043e-20
1.46889388800775e-21
6.35244251486066e-22
4.83544540086825e-21
5.10410863835283e-22
8.71271135781711e-21
5.35252923765916e-22
6.90503243285039e-22
1.72214804847847e-20
7.95153788996755e-21
2.64634309574101e-21
5.98677693477983e-21
1.31595555135568e-20
6.71041503546888e-21
1.43409137403617e-21
5.48336100737723e-21
8.19408351371376e-21
1.08816653436665e-20
1.53357717572104e-22
7.13357685221598e-21
1.90612147966894e-21
2.38692279332616e-21
5.05920675150346e-21
2.78126255720131e-21
2.15765294385602e-20
4.40366439369244e-21
5.1417132275836e-21
2.45318106124762e-21
2.26518532849179e-21
1.46578200928921e-21
2.13132709309715e-21
3.31232952466446e-21
1.57957995716167e-22
7.70421939679609e-21
8.14588025810177e-22
4.03131636485891e-21
3.36395799369819e-21
4.86134115520644e-21
1.14349705412762e-20
9.63089094146829e-21
2.05768288443395e-21
3.49240458253319e-21
1.27069830758725e-21
1.11401734983033e-20
8.97481297597402e-22
2.36035232888536e-21
5.13043136411827e-21
8.5374892770175e-21
5.58999954587201e-22
2.2431447102224e-21
1.12024413795215e-21
3.58383776333577e-21
6.68403053290537e-22
3.80123042735888e-21
3.21598989054663e-21
2.97231973648769e-21
8.38557880744469e-21
4.8186027917497e-21
7.10945933064607e-21
2.03581238898441e-21
2.47903861617376e-21
6.46412193586389e-22
1.68189896663009e-21
2.27794972162654e-21
9.52243489861299e-21
3.87118517921485e-21
4.52520766597642e-21
2.58496232845498e-21
5.21687283961174e-22
4.77959721603346e-21
7.19679124139396e-21
4.56539495214771e-21
1.92447092546697e-21
1.05013340383286e-21
2.3630225004109e-21
3.04448681674599e-21
2.25759620221073e-21
7.94544168503747e-22
2.37255968035093e-21
5.78194591530389e-22
5.45940772764337e-21
6.17073635014435e-22
2.16838567123385e-21
1.22164760010023e-21
3.29417132810838e-21
4.58862380546358e-23
4.94351020023471e-21
4.16034444878213e-21
3.93510683954408e-21
1.01760035465869e-21
8.30031647855821e-22
2.31201597757891e-20
7.87682723026519e-21
7.23509653314743e-21
2.55170837301135e-21
3.08948419950467e-21
1.51874233309413e-21
1.0790859672642e-20
8.03520026250186e-21
1.76336229108074e-21
3.43975895108929e-21
9.16303896160198e-21
6.36154213882635e-21
9.03884202587576e-22
2.54145592708024e-21
2.60423285243721e-21
1.351935859491e-21
1.01341072583481e-21
4.9088137108304e-21
2.27629581934407e-22
3.91912809039974e-22
1.13041713098876e-21
1.49613302551525e-21
9.17609323466398e-21
4.49656865591536e-23
5.03827784041129e-21
1.49400075695563e-21
4.76865866442328e-21
8.41601591654548e-21
6.5482570403431e-21
1.10312225664366e-21
1.26711309126211e-20
8.75327209587129e-22
1.16062492469428e-20
3.0434617617814e-22
2.40810115662208e-21
3.78899370687341e-22
8.33481096433147e-21
9.49597026609175e-21
3.04171718557698e-21
4.78227962587808e-21
1.06960333337457e-20
2.16179632948034e-21
1.24753833528459e-21
6.98143899640787e-22
3.19642768253212e-21
4.59157523142245e-21
6.19713400770521e-21
5.16229950072743e-21
9.1586496142612e-21
8.37901159231238e-21
1.279507326229e-20
1.45965193451515e-21
1.2758576261131e-20
1.28264570032386e-20
2.1034281155328e-21
1.58533963416053e-21
2.04540286815207e-21
1.07938947331157e-20
8.0135532062415e-21
1.14560655655797e-21
5.08010099426157e-21
1.92474960989148e-21
1.89873318830816e-21
7.33129147707244e-21
5.08864774331104e-21
1.05961969264423e-21
1.0996199578637e-22
1.46531803658999e-21
3.61868689107987e-21
5.12013537269837e-21
1.24814259785361e-24
3.52663096989426e-21
2.86281664553416e-21
6.5985303125326e-21
4.25995964083696e-22
5.19113534611167e-21
4.79960850179306e-21
6.6795259335959e-21
2.73721095580052e-21
9.6606400786734e-22
5.99633844831818e-22
4.53881258178766e-21
4.49502410021044e-21
3.79536507244607e-21
1.32331606121723e-21
3.29296379956259e-22
2.94481568296075e-21
6.36150031684603e-22
6.64822048359412e-21
1.4428556111701e-21
2.35699765994452e-21
3.08772201206434e-23
7.11677405957242e-21
1.65290788043345e-21
5.11661483240913e-21
5.01095436670192e-21
5.96029731874184e-23
8.29646584271193e-22
9.86930101803277e-22
6.66170587763386e-21
8.45664454154034e-21
2.18325664832664e-21
6.02012821590392e-22
1.31272357833022e-20
4.91934052301297e-21
6.5424509733513e-22
3.56769997256009e-21
1.64975890994056e-21
1.27512041485937e-21
5.80366454296e-21
8.78950332605428e-21
5.37902244134675e-21
5.41580491684084e-21
3.93638780705343e-21
4.21971211685778e-21
1.8296739213487e-21
6.48713258644405e-21
1.35312150904687e-21
3.46802592756727e-21
5.74181712439378e-21
4.08635129578282e-21
4.71228246594972e-21
3.42130487762171e-22
6.07310248668802e-22
2.09637477181741e-21
4.70803547062071e-21
3.99228690100351e-21
7.48967591418101e-21
1.45524414506154e-21
1.12020482226322e-21
3.83699846372523e-22
1.28641956626318e-21
4.3623716274573e-21
1.61048358158927e-20
3.7604781497302e-21
4.54568851371045e-21
1.73598928070279e-21
4.78329037363535e-21
6.54784826691337e-22
5.30028803630379e-22
3.15564200168768e-21
6.12703169316443e-21
8.28745487592337e-22
4.45835929297546e-21
1.21711571495195e-21
7.58199205387696e-21
3.82376669012136e-21
9.17910762962923e-21
5.5385965962393e-22
2.27342178290951e-22
4.36156402340534e-21
7.70488943557243e-21
5.49136829736469e-21
1.61663239453154e-21
2.55682528130901e-22
9.86317785241511e-21
6.75940033327368e-21
5.90623723805863e-21
1.32601023277039e-21
4.16472364732583e-21
1.06576187364339e-21
4.65908966478104e-22
6.3593784785939e-22
1.08982273117261e-20
2.72346172301188e-21
4.60278317860792e-21
6.79664963763528e-21
1.2910177753623e-20
5.29685543572809e-21
1.03058474682528e-21
2.41263557891357e-21
9.20243985725353e-22
3.73207543274833e-21
2.4558070708136e-21
2.13234111441682e-21
1.33702056158169e-20
6.00318883761776e-23
2.35747609912408e-21
2.28659097554955e-21
1.72070707780652e-21
2.62182318015402e-21
2.52115116246043e-21
7.02537285115944e-21
2.90847814434455e-21
1.26514144595887e-21
5.92142604656202e-21
1.56507665086518e-21
3.32938372623866e-21
9.46235646859795e-22
4.24483152235665e-21
1.2316490565654e-21
2.2331528739062e-21
4.71812839987589e-21
6.45811192501726e-21
3.24555294749285e-21
3.05861513496225e-21
2.93182180175326e-21
8.94171117132651e-22
5.9699398699576e-21
3.92775894896266e-21
1.0986991086465e-21
6.09982508003173e-21
1.44196488708634e-21
5.21783411304625e-22
6.12252928818452e-22
7.9508436352116e-21
6.95063284300089e-22
6.47199877640046e-23
8.07350693458207e-22
7.3275266202033e-21
8.12362793031305e-22
2.26612628352755e-21
1.96977244045659e-21
5.34844566419694e-22
5.87294001640879e-22
2.26731255552533e-23
4.12085379164189e-21
8.3872330986431e-21
1.39078663150744e-20
6.02902798986654e-21
1.08902092883275e-20
1.8326980556372e-21
1.51990251941291e-21
8.37601384529283e-21
1.98121230495278e-21
6.27905664698262e-21
6.19428997372832e-22
1.57054122163553e-21
3.09452772000179e-21
5.66811600717717e-22
5.57843697247235e-21
7.61257993076646e-22
9.11313780276575e-21
2.51015651986857e-21
5.48074139887053e-21
4.70665509763168e-21
3.91812458233225e-21
3.14793561780748e-21
1.31336243274917e-20
1.91237605058244e-21
1.58910690602056e-21
1.51602469251823e-20
4.61742863629353e-22
5.17773104729195e-22
3.154368436438e-21
8.46118443530573e-22
4.50445489020775e-22
2.81991897058377e-21
2.12439870661584e-21
4.74453274379551e-21
1.40207726240958e-21
1.59127510091546e-21
9.6110282815611e-21
1.95071848447654e-21
6.5214062703741e-22
7.64728628074522e-21
9.87076205764512e-22
1.06900527963756e-21
2.87648770916228e-21
2.44058346527261e-21
8.74648922546596e-22
1.75472011598407e-23
4.1620494026917e-21
1.01909226519149e-22
2.0293868386975e-21
1.33626173018244e-21
3.60596325798043e-21
7.14773527246288e-21
1.72352466624143e-20
1.03619827062949e-20
4.64133053552296e-22
1.51627698741683e-21
9.05968265613974e-21
1.5530417920979e-21
7.15205597814161e-22
4.08653598998529e-21
1.18399747243957e-20
3.39068672564078e-21
7.71549167333741e-22
4.59695864355463e-21
3.20949908853572e-21
1.23309773097361e-20
1.43466835912655e-21
8.94450243057146e-22
1.75658923159936e-21
7.89482760022632e-22
7.83900894951027e-21
1.59548384644447e-20
4.59598998186056e-21
2.68061554694297e-21
5.7773999520662e-21
1.84326858352786e-21
1.394872921614e-21
1.15314747143909e-20
1.012697081632e-21
1.72399702098412e-21
2.98832768881599e-21
9.09075439964399e-22
1.22502543835802e-20
1.72369506460055e-21
2.09101328397579e-21
2.58734307185379e-21
3.3090250105377e-21
2.01718844595762e-21
2.63803752705447e-21
3.97638500888846e-21
1.43944665120035e-21
6.68877588236862e-22
1.80145178835736e-21
4.28575332526889e-22
3.93912401970274e-21
1.37910109035462e-21
2.84382458936855e-21
2.357606815618e-21
1.18659940263665e-20
1.70404273872948e-20
1.19979712759538e-21
1.01773763170254e-20
1.61726351552271e-21
5.55923312504528e-23
2.14880910831829e-23
1.22671019589118e-21
4.72006207427675e-22
1.09601296227054e-21
1.14600160817782e-21
4.0005105447304e-21
1.01359368979376e-20
2.51808472959573e-21
1.25531836522488e-21
1.89254186453263e-21
3.62051049109173e-22
8.75212247439582e-22
1.06666927210056e-20
3.41051345807162e-21
8.83524785734974e-22
3.70476860062117e-21
7.5497033561173e-22
3.88010614674331e-21
6.36620924162971e-21
1.34610934052009e-21
1.03644500173942e-21
4.78477130911452e-21
5.36417151524941e-21
3.18189585802288e-20
3.20896004619366e-21
7.76420087627977e-21
6.20199675376103e-21
2.72973827400203e-21
3.664596462618e-21
1.12885432088133e-21
1.08812404403135e-21
1.29329031779863e-21
3.89439808739423e-21
1.60183576523016e-22
1.22051028366344e-20
1.32282432080306e-21
4.35689561179947e-21
5.10456395132234e-21
3.9145565965254e-21
1.95304547024074e-22
4.39981734817736e-21
1.04867447633809e-22
7.77723884074277e-22
4.97532591924149e-21
4.42884630032723e-21
3.47686907211257e-21
9.90296445872297e-22
6.49519816995956e-22
2.52585135544423e-22
2.73632861953507e-21
7.70643999035752e-22
1.12484356608261e-21
8.42307233267219e-21
9.55397341794019e-22
4.73888032409877e-22
1.74858759502712e-21
1.0481828785937e-21
2.24725198365741e-22
2.14356108143091e-20
1.45138103428689e-21
2.10873059116871e-21
6.08820273133158e-21
4.01463583872903e-21
5.55724584870144e-21
3.75456926226932e-21
3.46504076856944e-21
4.75925092974889e-21
3.72484344537931e-21
4.73626817837229e-21
9.27767497348545e-22
1.39150548721085e-21
3.1554648386811e-21
4.12470448145276e-21
3.96208477329285e-21
6.58258125883527e-21
1.23304752258725e-21
6.85109963208474e-22
9.16370715857166e-25
5.0052883788892e-21
7.60107449056658e-22
6.96312366392954e-21
4.87746805062406e-21
4.11150426648506e-21
1.52498489065986e-22
9.0819443387754e-22
9.31623851788055e-23
3.36322802129654e-21
1.7422966309739e-21
6.57503429388269e-21
1.26153495085416e-20
4.23061371014781e-22
7.61836819521978e-21
4.34619575968196e-21
8.84697730315047e-21
5.82617772899706e-21
3.23692071740225e-21
2.49613224883678e-20
5.80121014855449e-21
2.32720204680305e-21
1.23321582354421e-21
4.82665354431395e-21
3.90682726606148e-21
9.4784319612408e-22
1.88178612244439e-20
4.00274217382584e-21
2.0592739278704e-23
3.32809779695882e-21
1.08975042038679e-20
1.62043189996387e-20
6.0263449317099e-21
9.96699268237048e-21
8.04404357750124e-21
3.94135261648733e-21
1.73933263288777e-21
3.34332191764073e-21
1.35362483362403e-20
1.90306943995764e-21
1.50553131592921e-21
3.45067672075543e-21
9.39353914393258e-22
3.30976606142553e-21
4.14530519472884e-21
2.22339185754076e-21
2.57790119856649e-21
1.00586467805045e-21
2.31674005663319e-21
1.81279383128176e-22
1.59181988009597e-21
6.10394507196414e-21
5.97153079179058e-21
5.6590838860628e-21
1.96779013031847e-21
1.37645438549655e-21
2.00748358328618e-22
5.36208334109687e-22
2.65347940831692e-21
5.41261082346165e-21
4.02170431849442e-21
7.0937384168011e-22
4.08928733979759e-21
5.43211850261954e-21
2.60860383335018e-21
9.65639864388914e-22
5.0810739110377e-21
7.18260142447625e-23
5.68506860916367e-21
4.60970591507335e-22
1.07602458582424e-21
1.44992323415181e-21
6.90521674432273e-21
5.68086946456921e-21
1.23357594022059e-20
9.00301933784848e-21
1.32926950858709e-20
8.47174958698578e-21
1.39278462421526e-21
1.00063201826417e-20
1.13425337895341e-21
1.3293007961403e-20
1.51026449771374e-20
2.57434620309973e-21
1.14565225671135e-22
5.84445342986712e-21
4.35051764259243e-21
7.00921334196566e-22
9.66199571745309e-21
4.33861207003562e-22
2.66450240384512e-21
3.38442251117066e-21
2.77888437597731e-21
2.248221070476e-21
1.25690449741859e-21
6.04960594837024e-22
2.1780014304236e-21
1.59036341576149e-21
9.37128672890895e-21
4.67155966535024e-21
3.91580534984278e-21
1.03377460015085e-20
8.62434308098556e-21
1.96212575287164e-22
5.85916492740768e-21
3.25124252317132e-21
1.34511158777654e-20
3.62396303356157e-21
8.29310423002335e-21
3.7126701163137e-21
6.80763674675687e-21
7.98504302861107e-21
6.52839400770012e-21
3.16160999709938e-22
2.85407438425531e-21
2.35698571304378e-21
1.32130146850878e-21
1.61101341996421e-21
1.42632687657199e-22
8.56862990387772e-21
2.8306501707724e-22
1.21747281446601e-21
3.93281103892924e-21
5.55903969259917e-21
5.45537203499989e-22
1.35993199778431e-21
1.99018115733385e-20
2.13606241756774e-21
2.82601980500786e-21
7.0682253808724e-22
2.65790308938948e-20
6.98829843449537e-21
1.10836803569893e-22
1.76300165009521e-20
1.98283486304379e-21
6.76641694703703e-22
9.64008127940935e-21
6.77225836821814e-21
3.95607473350881e-21
5.34212872484507e-21
1.12997243985629e-20
1.10622770238716e-21
4.29829786211608e-21
2.03696795633292e-21
1.39843425576545e-21
1.865293437416e-20
1.01003068437098e-20
1.13639339653023e-21
7.14557028703441e-21
3.90620940771739e-21
1.32075698411761e-21
3.24880918599208e-21
6.41286970887441e-21
6.38789995077905e-21
1.31378514942417e-20
5.54320368214525e-21
1.5033823702987e-21
1.99924949534511e-21
4.77339329881206e-21
5.08621220549547e-22
1.14433316262631e-20
2.14612875434233e-21
7.03698195159738e-22
5.18975546851126e-22
3.01427063051258e-21
3.67007144179995e-21
1.17626079477188e-21
5.49341891349379e-22
6.43559845423447e-21
3.5475251346223e-21
9.22766481580753e-21
2.33577225276503e-23
1.16690954470227e-20
3.59408289257438e-21
3.6387822213325e-21
4.37601650626863e-22
3.81047630234279e-21
1.99343429307855e-21
2.81273208165657e-21
1.74261259189261e-21
7.75543992721407e-21
9.76553129169935e-22
9.02335075236163e-21
3.5453331778553e-22
5.55455560260226e-21
4.65450662665753e-21
5.8124608518793e-21
3.66333492746348e-21
7.3937907234947e-21
1.02817821389112e-21
1.0535663884906e-21
3.58088834358701e-21
1.07347249066099e-20
9.33650745627488e-22
1.13385277202087e-22
6.72981441511656e-21
8.12662254080346e-22
2.9027445383503e-21
5.28625780760492e-21
7.61593776076586e-21
8.3802529413615e-22
5.43573755511822e-22
7.56389816663114e-21
1.16552788311073e-21
1.78081570642055e-21
3.51339687581435e-21
1.20676194438351e-21
1.2242531171817e-20
2.87911567267539e-21
4.40961670379943e-21
6.54468985504809e-21
7.89514169532623e-21
2.42091112973406e-21
5.49385647248285e-21
8.38099318028904e-21
1.46231046722955e-21
1.10736597009202e-21
5.08704417444601e-21
7.96241020344843e-21
1.49900439459269e-20
8.58968233986702e-21
5.21384512040414e-22
9.43663464940579e-21
3.64175948678172e-21
1.49439432037496e-21
4.29667115833497e-21
1.75884973374682e-20
5.37936752556986e-21
1.10557092052647e-20
1.4773080018631e-21
3.76244600891789e-21
3.25920208817853e-21
1.73617985508882e-20
1.96162507131352e-21
6.41798861314508e-23
4.1402142152856e-21
7.32275679308597e-21
8.43121324170273e-21
1.11509060021949e-23
6.09134692716132e-22
1.65700393961871e-21
4.01644934494225e-21
5.08380068975631e-22
1.80692481716535e-22
1.83778279732913e-21
7.26599404872653e-21
9.09577802707817e-21
5.92058662833173e-21
1.30530896219625e-20
6.03217296784597e-22
8.13188979576526e-21
6.65840572253225e-22
9.63185742168683e-22
1.52508064600628e-21
8.99957831782791e-22
1.21136461844138e-21
6.96859913113767e-21
1.0743349875303e-21
9.06106651258371e-21
9.8200093657993e-22
2.724988862128e-21
5.27016308329796e-22
3.93289040314394e-21
2.77935177269298e-21
1.03494919678376e-21
4.7605293914639e-21
9.57793015734783e-21
4.27682665882269e-21
1.75122076224319e-21
3.90955229658272e-22
1.54967538236407e-21
2.09543652887593e-21
2.64769590271386e-21
1.18246424989486e-21
2.26788771018555e-23
7.16733814852909e-22
1.58368730544779e-20
5.50701306511437e-22
2.37355857594841e-21
4.54895353058402e-21
3.07998230407539e-21
1.03349524481674e-20
6.65549906212663e-21
4.4822375209144e-21
8.92267150118197e-22
2.45692943245512e-21
9.01944723985458e-21
1.19579319866867e-21
7.98696365054581e-22
8.09142102220684e-21
1.00890318021826e-21
2.59778146460132e-22
3.49654196826396e-21
1.31677485514983e-21
1.06470751253691e-21
4.76047987927453e-22
3.61420466958978e-21
5.05175631831861e-22
1.15104337739229e-20
4.72183360885153e-21
1.63014377529651e-21
3.12608278773261e-21
5.78560982479404e-22
2.60756616089976e-21
1.83721029380449e-22
2.0035246143254e-20
6.28780960700859e-21
2.0659581779141e-21
1.51081695839362e-20
3.05005402050216e-21
2.24030632421955e-21
2.11921556849812e-21
6.75225172452061e-21
3.70441362243351e-21
4.09318309200918e-21
5.29610102922851e-21
2.7240812541797e-21
1.29045718012407e-22
8.23378599892985e-21
9.16018809476289e-23
4.59595970361112e-21
6.76294592353463e-21
2.70613841131482e-21
1.37849510587787e-21
6.89390389701404e-22
6.08211160003162e-21
1.33060088216503e-21
3.66206681060709e-21
2.7881356851597e-21
6.38810103850191e-21
3.02687138558952e-21
1.45869704993396e-20
4.4836403811208e-21
1.05578780596085e-20
1.24376319240577e-21
5.42274151878352e-21
1.39166192325381e-21
1.77388407288799e-21
1.80594438664087e-20
7.7374471963006e-21
1.13321073007099e-22
3.16611708237316e-21
8.39556612050434e-21
7.30127402373772e-21
1.07666492429071e-20
3.13152451040219e-21
2.7836311486468e-22
1.28279863305221e-21
1.66903158602341e-20
2.64145281407314e-21
5.8626102783387e-22
9.26378144689794e-21
2.18568617138471e-21
1.03481652072882e-20
1.30981030978776e-20
2.34804777264796e-21
3.01213282860587e-22
6.03200748753525e-22
2.92192015174749e-20
1.2374086805647e-20
1.66026850447003e-21
6.93707717111721e-21
1.00011193348712e-21
1.96337356931704e-21
4.08439349564133e-21
2.5299276015904e-21
3.59369881679738e-22
2.33348272424381e-20
3.42453658349942e-22
2.67528709850921e-21
9.50125424355609e-21
2.26521022537629e-22
8.76416962393674e-21
1.1767428204011e-20
1.02894236059035e-21
1.66460504812172e-21
5.5515671678327e-21
1.0324541081237e-20
4.89153042189541e-21
1.21283475142979e-22
3.23378427386222e-21
9.17888527954112e-21
1.92555421086742e-21
5.64957339653213e-22
1.80466597824281e-21
6.33939084779268e-21
4.55360926374129e-21
3.36230886062647e-21
3.7095073948589e-21
4.83909462181472e-21
4.37970561990346e-21
3.99410984832311e-21
1.71728803497055e-21
6.78795846141026e-21
8.21061437668277e-21
8.07723775969455e-21
1.786523282169e-21
1.51086097719654e-21
3.03737298064799e-21
3.25545936697006e-21
2.74547791712365e-22
3.07226949411569e-21
9.77285792553322e-22
2.81862286018827e-21
1.537955242175e-21
1.52816710885177e-21
4.0230371456662e-21
4.44548019633312e-22
8.343029822918e-22
1.9986337920013e-21
4.33397928932596e-21
2.48166282384883e-21
3.92435850427825e-21
2.73911119173605e-21
5.29139091642994e-21
4.5046412786268e-21
1.1533292325024e-20
3.81393859546422e-21
8.9216810079752e-21
6.65619023941564e-21
2.80592449627171e-21
6.38456225403302e-21
9.46835993038309e-21
1.06386991934746e-20
5.75698564798782e-21
2.93837806135126e-21
5.18879156977714e-21
2.05881892734684e-21
7.55266634509164e-22
1.05159207493416e-20
3.05209278484866e-21
2.83927190611349e-22
1.46062318748404e-21
3.02451859131845e-21
6.76840127619543e-22
1.1975967626355e-20
8.07517131587564e-21
2.46676367800046e-20
4.04409474665609e-22
1.24062847349183e-21
1.94230286635791e-21
1.04083301085477e-20
5.16961521829179e-21
1.28888430366905e-21
4.64770595618103e-21
7.24944903653835e-22
4.19452742928908e-21
2.37987245672565e-20
7.04519881399452e-21
7.7422946984269e-21
3.21355929921639e-21
3.99361830983378e-21
3.61312899705107e-21
2.08602067087992e-21
8.1045568487773e-21
2.67224186982537e-21
1.64205991406766e-21
3.36962025640681e-21
2.44885622068958e-21
3.73185255549774e-21
3.83461782772703e-21
3.58425034613664e-21
5.09846308894505e-21
3.41377131433823e-21
4.10984357945401e-21
5.43352688161998e-21
7.73607060577242e-21
2.85335369225735e-22
4.37048010004886e-21
2.51175385367951e-21
2.80447882605005e-21
3.53125444618031e-21
1.53994056130392e-21
1.52103699572293e-21
2.11784392876259e-21
1.17061503518923e-22
1.06985282089432e-21
7.36843638984355e-21
6.24454619036163e-21
2.02497736866771e-21
4.17533684425873e-22
4.01566912725989e-22
3.7334550636662e-21
6.76659813558162e-22
9.05503871088679e-21
3.90388092128179e-21
9.14236066623304e-21
8.36187557319041e-22
1.68947753388276e-21
2.24269831265725e-22
2.60514886651678e-21
1.08329781403985e-20
2.49317133527462e-21
2.46856347137809e-21
1.8271292104206e-21
9.11727419645715e-21
5.51524155001381e-21
1.16320144752557e-21
7.69628385889243e-22
1.8590642409505e-21
2.70989817485575e-20
3.8701791269013e-21
1.68981933110058e-20
3.25265778058701e-22
2.13068010582962e-21
6.03692240102461e-22
5.70669099322332e-21
2.57925697435471e-21
6.97349885993176e-21
4.96629439185938e-23
1.97587713190491e-21
8.09995885512965e-22
2.05946956545816e-21
6.1168479994986e-21
5.36015639365706e-21
1.32241782599511e-20
9.45378364361336e-21
2.71573842457096e-22
2.26542677778873e-21
5.07639940757845e-21
1.03572157883845e-21
3.44414174805979e-21
1.69243569268181e-20
1.77242661795217e-21
3.64271966785732e-21
1.84154224237962e-21
8.16721901025099e-21
1.17918498266246e-20
8.38644596493266e-21
2.4298274057688e-22
3.32407709332358e-21
7.56018397697907e-21
6.06242955751425e-21
3.83567890748262e-21
1.18355603657411e-22
5.23230170385218e-21
2.1150429296208e-21
3.13593743483258e-21
1.92307133637798e-21
3.9925008986854e-21
5.72089878025317e-22
2.55549561076437e-22
1.1238968777221e-21
2.26156076622773e-21
2.22417447602859e-22
5.33500397740136e-23
5.90748968237091e-21
7.51159159200075e-22
1.49792489749949e-20
8.12396844792256e-21
6.47690505270018e-21
7.70999889228947e-23
7.52473207793639e-22
6.97701145192703e-21
5.19859424426737e-21
5.08743627435762e-21
1.88786131361665e-21
3.42364674188923e-21
6.99444647254657e-22
7.20706436685468e-23
5.57913289506426e-22
2.60825206916191e-21
3.50518005076909e-21
6.00724248642937e-22
2.83185755414477e-21
1.83551676298188e-21
1.33449893269193e-21
1.70143282339764e-20
6.91356770020979e-22
3.6481220104426e-22
1.15852265576599e-20
1.39555330918891e-21
6.04288238371671e-21
2.81369632360806e-21
2.31983715784211e-21
2.25300365663801e-21
5.23309305858595e-21
1.618429325982e-21
1.88487557919799e-21
1.87065301092313e-21
7.94124534321909e-22
8.37735144683196e-21
2.66204542759251e-22
6.96086433237184e-22
2.95933978015131e-21
3.4350098302179e-22
4.3840354463537e-22
1.19189709890057e-22
2.80834775434984e-21
9.94434974663185e-22
5.83625821134763e-21
2.25979654783577e-21
1.7702318092323e-21
4.86369143565982e-21
5.58603707427843e-21
1.03217022390395e-20
1.22538107541859e-21
2.86099398231643e-21
4.35412613438749e-21
2.15528747413509e-21
1.48777276176249e-21
4.1444299205035e-21
1.93182725809854e-21
5.58384582785733e-21
3.76987131936852e-21
3.23753784513113e-21
8.33338859953684e-21
1.33918816715011e-21
3.93460667572282e-21
4.22287619242017e-21
9.24871351804965e-21
6.25692107546909e-22
3.9071825553347e-21
7.67561439155746e-21
7.15843848452174e-22
8.20002451864204e-21
5.40322226469384e-21
1.22880616811586e-21
3.94871473987216e-21
6.62117824390345e-21
2.36119404251458e-22
4.55959731207385e-21
1.57816994536481e-20
6.54564007399212e-22
1.03146442234924e-21
1.09271958670984e-21
2.80305272327934e-21
6.33524104290253e-21
5.48628683324512e-21
5.76830473427198e-21
8.36839091674896e-22
2.00994896014116e-21
4.10024843789592e-21
8.44418312332112e-21
1.00480033782043e-21
1.02634493541247e-21
7.8379041678781e-21
2.05833198777722e-20
4.39812266189339e-22
5.90498261885623e-21
4.71442058106489e-22
3.21980801541714e-20
1.18514413132019e-20
3.00981682424791e-21
2.21194825633765e-21
2.44539160877997e-21
2.38686042252775e-21
2.11988309524271e-20
1.95771676673509e-21
1.64709192431247e-20
6.82048989945107e-21
4.26581449583637e-22
3.47406490237711e-20
5.56053502802073e-21
1.29483207830627e-21
4.56719121937628e-22
1.79015705573657e-21
4.16155944694016e-21
4.79614135545618e-21
6.08957619998087e-21
6.7452937286713e-21
3.3996554118425e-21
4.58009647548251e-22
2.86544827669574e-21
2.70243276946603e-21
1.13535939849873e-20
2.21586962816826e-21
4.0027412447378e-21
2.78196796610768e-21
3.80394991098633e-22
2.22769422842032e-21
2.36524101322786e-21
3.85597922300963e-21
1.64960148078818e-22
2.17951842636414e-21
4.03176784780451e-21
1.27659600223847e-20
3.85110057480441e-21
1.35985411004469e-21
4.6965394205449e-21
8.50248262383732e-21
7.13904619394491e-22
1.08650375274967e-21
8.69934903199134e-21
7.65767313652584e-21
5.02982338857591e-21
7.58767226818354e-21
9.28148650898677e-22
4.804053302549e-21
1.96055742951823e-21
6.1830536678719e-21
3.01510255594808e-21
1.45152691152308e-21
4.36424050135616e-21
7.9414166959699e-22
2.16748642212741e-21
6.46354365076187e-22
5.70386358968462e-21
5.27894453328018e-21
7.67429051678475e-21
2.12511005039276e-21
7.19111615275892e-21
7.53989107919811e-21
8.61995600708812e-22
4.95510401119817e-22
1.56495847928781e-20
7.42454254255583e-21
2.96931810292848e-21
1.09791979878431e-21
1.09964581182108e-21
7.72433452155325e-21
6.23620784216622e-21
9.63200153162869e-23
2.67194388439198e-21
8.58749940275163e-21
3.50118982380447e-22
9.60900101152089e-21
9.9581474300592e-21
1.5217708412733e-21
2.18916545136335e-21
7.03211791961929e-22
7.70729114148236e-21
3.89190837142379e-21
4.60181988941077e-21
4.28449087762884e-22
3.42995786483948e-21
1.93037330496724e-21
7.80410211025202e-21
3.93059265276184e-23
3.89262099346864e-21
1.48742930689301e-20
1.9606840173526e-20
1.3354821652437e-20
2.91967287534046e-21
9.13989477148869e-21
4.68871202143026e-21
5.64506891885242e-21
1.06077382672912e-22
2.96511407222043e-21
1.72909265518278e-21
1.49128897546175e-21
3.70171964726063e-21
6.10425687982289e-21
9.11026497734935e-21
4.52557343516882e-21
1.66537390151635e-21
8.79474778326273e-21
2.79633217970363e-21
2.49500111062766e-21
8.02222213495822e-21
3.1810601240939e-22
1.22145513952832e-20
9.95298255809303e-21
3.28895931642129e-21
4.367691968501e-21
2.71653091752216e-21
8.54754419857256e-21
5.72695468535678e-21
4.53052554050394e-22
1.63104532268748e-21
8.19596271606824e-22
1.74952581285282e-21
1.09275610680143e-21
1.05047000614842e-21
2.01450126477075e-21
1.73261392615926e-22
1.15437279237493e-20
2.25622410929518e-21
7.22849798059351e-22
6.13484010001791e-21
8.37641558414625e-22
3.51344814927901e-21
2.59311879162668e-21
3.88106987420252e-22
1.68948198895546e-21
5.99105705714543e-22
4.59563165745474e-21
6.94722382589275e-21
4.22821270701057e-23
1.23903320712989e-21
2.4527939850333e-21
1.93178274723779e-21
2.42976929188667e-21
5.26292471908515e-21
4.87799158019959e-21
5.04294885216358e-21
6.40615696575021e-21
2.79050327111444e-21
7.76857983340443e-22
7.19052468453688e-21
1.97636334934547e-21
3.52184061096907e-21
4.77639323936133e-21
9.71673445716929e-22
5.55302997020639e-21
2.26476605578578e-21
3.15111265344338e-21
7.98766726227912e-22
2.71259421596724e-21
3.2188977028701e-21
1.8836688641248e-22
1.01515174045213e-20
5.53773031210897e-21
2.95080364721685e-21
6.0423283878016e-22
3.39526190691731e-22
1.81256439232635e-21
4.47189074870132e-22
3.66516055629463e-21
8.0752875587896e-22
2.764587643e-21
1.08289768920416e-21
4.52593387224978e-21
1.58153718766593e-20
4.90695478347454e-21
7.53493018260285e-21