/*--------------------------------*- C++ -*----------------------------------*\
| =========                 |                                                 |
| \\      /  F ield         | OpenFOAM: The Open Source CFD Toolbox           |
|  \\    /   O peration     | Version:  2406                                  |
|   \\  /    A nd           | Website:  www.openfoam.com                      |
|    \\/     M anipulation  |                                                 |
\*---------------------------------------------------------------------------*/
FoamFile
{
    version     2.0;
    format      ascii;
    arch        "LSB;label=32;scalar=64";
    class       Cloud<dsmcParcel>;
    location    "0/lagrangian/dsmc";
    object      positions;
}
// * * * * * * * * * * * * * * * * * * * * * * * * * * * * * * * * * * * * * //

6281
(
(-0.147527295148834 0.00648909785344069 0.00049558951775619) 0
(-0.152299644630191 0.00186085223095091 -0.00108137282703893) 0
(-0.148850606363376 0.00123194110581221 -0.000595355758084767) 0
(-0.148400547030726 0.00227344460780676 -0.000147693523284997) 0
(-0.14761957439549 0.0052418475017873 -0.00298687875928596) 0
(-0.149638115251389 0.00262687947575226 -0.00325576305907547) 0
(-0.14066294357864 0.00704971240004349 -0.00353907734155069) 1
(-0.143060794946258 0.000727731008080443 -0.00263394820973251) 1
(-0.139033181841413 0.000663379465735475 -0.00164211212593053) 1
(-0.14338498531323 0.000427659895080973 0.00273761249000346) 1
(-0.139248737523404 0.00387565899617384 -0.00318119353557334) 1
(-0.138386639650317 0.00581969224462503 0.00349122402225093) 1
(-0.143381562981193 0.00384806950168203 -0.00165481855750271) 1
(-0.143815542718578 0.00126403606571302 -0.0019374603516846) 1
(-0.130072152627406 0.00506115783812106 -0.00276263234255512) 2
(-0.131354866456171 0.00390911042105349 0.00159653630040934) 2
(-0.135259112228889 0.00686807387892131 0.0017008602647789) 2
(-0.133871955205704 3.30705187802382e-05 0.000889145669737236) 2
(-0.135737026948147 0.00494154116596091 -0.00386180520997058) 2
(-0.131936610272221 0.0036403075052807 -0.00157750360084165) 2
(-0.133409304685405 0.00622305021572905 0.0031001217838727) 2
(-0.122722757632251 0.00311416962918567 0.000956336503129841) 3
(-0.128098495575784 0.00630301511692704 0.00132399324427461) 3
(-0.12503875047935 0.00492993176797609 -0.000281069940031896) 3
(-0.127704719075124 0.000787968334138969 0.00283816298144211) 3
(-0.126464604374835 0.00454401629318054 -0.00109543763272758) 3
(-0.124792179720347 0.00357044076104696 -0.00110369054337885) 3
(-0.12422956011856 0.00334590767122468 0.00270791618616754) 3
(-0.12407298703352 0.00601108865393943 0.0036745568335124) 3
(-0.129301635666451 0.00660860546203111 0.00199982455168628) 3
(-0.116556332633137 0.00488945176135929 0.000525954550261343) 4
(-0.116471349664907 0.00698368627130239 0.00124911207961457) 4
(-0.116601905953143 0.00199504980149582 -0.00154421019112874) 4
(-0.117339122512275 0.00208077195097906 0.00036211038282505) 4
(-0.118267381153823 0.00011375567826569 0.000970440345302431) 4
(-0.116167634734286 0.000607136025896637 0.00272425912719753) 4
(-0.118929441550659 0.00325443176118448 -0.00271421948022303) 4
(-0.114780848933182 0.00429638739998368 -0.00392655119695747) 4
(-0.115624079272894 0.00466282688752326 0.00370743864758838) 4
(-0.117592040690001 0.00280281694142933 0.00300678738188632) 4
(-0.117355981685328 0.00466258637269629 0.00126654164679505) 4
(-0.119778413515556 0.00513367415933043 0.00143481005086429) 4
(-0.119859445524851 0.00495186391852878 -0.00156751014234509) 4
(-0.121666632807505 0.00151467075436929 -0.00222995051191363) 4
(-0.107574045546556 0.00458852740072738 0.0007551324273103) 5
(-0.110885953602532 0.00624348668661797 0.00155421186576185) 5
(-0.109010479990517 0.0070785754638041 0.0023232808758569) 5
(-0.110681762949109 0.00170126055050901 -0.00254306570783066) 5
(-0.108243606928157 0.00590259733361784 0.00250726493517986) 5
(-0.109732884050022 0.00471266301639402 0.00304575010988831) 5
(-0.112604369573778 0.00309887388739703 -0.00211103679067513) 5
(-0.11371036249018 0.00636698113349102 -0.00198569115948152) 5
(-0.11417215561607 0.00369892195588634 0.000529320493937989) 5
(-0.0991732174977923 0.00112476098992669 -0.00105706564320513) 6
(-0.104733751527059 0.00590256110315043 0.00108082944987146) 6
(-0.104119899919864 0.00729341769369251 -0.00152143013576283) 6
(-0.101884196882102 0.00220743283168737 0.00109337112686227) 6
(-0.102133262046797 0.000851150060438354 0.00209207342070661) 6
(-0.105863474783067 0.0010376526907698 -0.00350428006321136) 6
(-0.104682116192102 0.00479655468739285 -0.00286101493564596) 6
(-0.100641571993774 0.00077981772122689 -0.00336566568320598) 6
(-0.103004115161716 0.00283928492665387 0.00399152114338797) 6
(-0.102779254914522 0.00289652228315799 0.00273812039312039) 6
(-0.104550608440751 0.00487921941328265 1.59559941997326e-05) 6
(-0.0927988311585082 0.00160611531125595 0.000725037452919272) 7
(-0.0930173207990491 0.00713172497135209 0.00320370576080504) 7
(-0.0960113257745168 0.00667400539984705 -0.00156842245343881) 7
(-0.0965575048136262 0.00205179210381967 -0.00152237214615658) 7
(-0.0953734176061945 0.00172813169444036 0.0021684108108659) 7
(-0.096277011612989 0.00609835093540866 -0.00398739445136583) 7
(-0.09735865411387 0.00466778252278084 -0.00415025463348934) 7
(-0.0927238280842439 0.00416220791754176 -0.00361274224558512) 7
(-0.0924823148294101 0.00254461323353721 0.00394422344038938) 7
(-0.0959615777373393 0.00519576744610279 0.00280295678352547) 7
(-0.0984561663692114 0.0065045845299007 0.00151347985876585) 7
(-0.0841346950773753 0.00220974080711941 -0.00273622536159632) 8
(-0.083833021765864 0.00171203926754387 0.00235904645624169) 8
(-0.0850390155635229 0.000538689657661176 0.000968190626204103) 8
(-0.0899625320301285 0.000125563440004348 -0.00362327503471917) 8
(-0.090956021729337 0.000186322164729865 0.0035075147871055) 8
(-0.0878752078505172 0.00309250478282456 2.16187774208838e-05) 8
(-0.0885045360404494 0.00412582584044889 -0.00319980108927156) 8
(-0.0844517155991829 0.00200556276444562 -0.00396866322853587) 8
(-0.0860059005410932 0.000232198088523357 0.00401963755057616) 8
(-0.0907484552005139 0.00415267986646709 -0.00139037834282749) 8
(-0.0910364360561175 0.00103227757716988 0.00020142739768593) 8
(-0.0765304218353101 0.00284360925707072 -0.00287241086709835) 9
(-0.0810787446153945 0.0064773781834302 0.00151610413403676) 9
(-0.0800925498924494 0.000601593946430097 0.00265261767115874) 9
(-0.0814262807324035 0.00381849726598818 -0.001771643966753) 9
(-0.0783101252713266 0.000677371143816031 -0.00383883044292995) 9
(-0.077973191161965 0.00491581709620346 0.00390418389647005) 9
(-0.0817521455492111 0.00588700531213439 0.00403302604867907) 9
(-0.083149859911434 0.00663405513765365 0.00177793580252766) 9
(-0.0823229455415297 0.00299626260102951 0.000792154366798395) 9
(-0.0687184415402966 0.00107282975628986 -0.00100673547054826) 10
(-0.0701072086266322 0.00269600746378158 -0.000111919220584697) 10
(-0.0724225864787775 0.00482181626546291 0.000124793619405514) 10
(-0.0751152045460244 0.002438220861725 -0.0037828848940818) 10
(-0.0747424993579912 0.00394676354219386 -0.000771722263767051) 10
(-0.0756265923414045 0.000974996312438033 -0.000355809970382832) 10
(-0.0616283824075176 0.00101303691511581 -0.000857518623013075) 11
(-0.0668633424009942 0.00621528571899309 4.89411312899887e-05) 11
(-0.062759699524076 0.00124024464560638 0.00211616345867975) 11
(-0.0639206660820472 0.00150525287704638 0.001559413221157) 11
(-0.0677265174541698 0.00527325975472848 -0.00352716090180311) 11
(-0.0650496133572884 0.00297825168048847 -0.00296329851700935) 11
(-0.0629288104764859 0.0043559039234658 0.00284206593645362) 11
(-0.0655949239963252 0.00539744714969985 0.00272636301433285) 11
(-0.0684377134189772 0.00687091190667152 0.00340556397419068) 11
(-0.0662245446157116 0.00362984206144737 0.000357799992434332) 11
(-0.0559101988401003 0.00290822427516955 -0.000394960845067474) 12
(-0.0550757409713964 0.00299549722630771 0.00171761170117232) 12
(-0.0569180468824061 0.00693793438675624 0.00069337318404495) 12
(-0.0554710852693465 0.00567694677940673 0.000561187688964774) 12
(-0.0569903636396211 0.00397128968574406 -0.00231674967376354) 12
(-0.0584149911503647 0.00082873755620129 -0.00388767427896175) 12
(-0.0555866135767931 0.00329107969668934 0.00185036663826028) 12
(-0.0584420742790153 0.00342532672324031 0.00175145706629685) 12
(-0.0588313969781177 0.00420366796904838 -0.00164510002531381) 12
(-0.0602640539763741 0.00417560925155769 -0.000982150886306082) 12
(-0.0603445750919865 0.00257815790856827 0.00203197812886681) 12
(-0.0463301377118346 0.00663220030006612 -3.93367554615833e-05) 13
(-0.0459262014252161 0.00306004807149397 0.00327030984722609) 13
(-0.0504196306532385 0.00603749798363734 0.000649347213355602) 13
(-0.0487886105594158 0.0004132282689979 -0.00112741241759156) 13
(-0.049600947756596 0.00200185826849459 -0.000104014874528418) 13
(-0.05229105731183 0.000533625004765907 -0.00174502138033666) 13
(-0.0487975099919669 0.000197649846620568 0.00360404591396213) 13
(-0.050892272582059 0.000542841962244829 0.00364204370393125) 13
(-0.0518048509376832 0.00323733488721688 0.00313576340650796) 13
(-0.0532609011402804 0.000154501670518927 0.000916381765523962) 13
(-0.0398054069306202 0.00382931924458771 -0.00154080858126216) 14
(-0.0388224181178325 0.00463832598611675 0.00317691171224141) 14
(-0.0407145528527891 0.00708120295538563 -0.00160043166047194) 14
(-0.0391085022728872 0.000970804737562166 -0.00158244276173322) 14
(-0.0430459189523766 0.00721941847899027 -0.00418344929084962) 14
(-0.0409972908682963 0.00591116480754857 -0.00267673414716115) 14
(-0.0428577282505727 0.0019953930954322 0.00315471440730508) 14
(-0.0436936041329734 0.00436706236010308 0.00295342960023536) 14
(-0.0454709288453975 0.00305122697005016 0.000731621979793916) 14
(-0.0318827796542676 0.00520589805671003 -0.000528267560250978) 15
(-0.0313023705090962 0.00220651969582994 0.00321155284626815) 15
(-0.0338341095053527 0.00557130702485837 -0.000132255992898712) 15
(-0.0318831314563716 0.00728822781632294 -0.000710885748756804) 15
(-0.0375411815399459 0.000402895864708932 -0.00205356886011748) 15
(-0.0358579153071042 0.00254068479411854 -0.00404748555733866) 15
(-0.0306496653906162 0.00240171774686758 -0.00416138954045697) 15
(-0.0314855083434553 0.00233752257078036 0.00405032817028255) 15
(-0.0368146779930264 0.00420439608743973 -0.00236745691325401) 15
(-0.0229909240189868 0.00624713947416082 -0.00292631191528857) 16
(-0.0233360205369406 0.0013182300557225 -0.001801341177271) 16
(-0.0279693189138979 0.00691071546340345 0.00231650586959066) 16
(-0.02555852612701 0.00743528899309698 0.00158577064114484) 16
(-0.0245305384579277 0.00748749003184236 0.000179579827231154) 16
(-0.0258275177933886 0.00072686910734802 -0.00319267722803225) 16
(-0.0264955801993808 0.00282298456911089 -0.00307294022573344) 16
(-0.0303087147788888 0.00228372656499276 0.00418677733505732) 16
(-0.0162106080177564 0.00355071945445078 -0.00114359581574174) 17
(-0.0153162320314405 0.00461842832376624 0.00159607904385019) 17
(-0.0183646149564598 0.00299041793719717 0.000346190612367168) 17
(-0.0190819601656535 0.00162930120018091 0.00118110915981174) 17
(-0.0186595284000176 0.00444194751783649 -0.00177416539891135) 17
(-0.0202600029633439 0.00256708583551536 -0.00202486807328796) 17
(-0.0162562983667702 0.00263000100622923 -0.00311963241952148) 17
(-0.0194029588970432 0.000920958834327865 0.00332569393626174) 17
(-0.00790555870161391 0.00510024774372827 -0.000747000149945441) 18
(-0.011354743483515 0.00263615609288466 -0.000745862226841535) 18
(-0.0115576820368662 0.0011911634323952 0.000706397104535066) 18
(-0.0117797463652038 0.0013691062863926 0.00010790530676578) 18
(-0.00781552328052953 0.00358618145339785 0.00404205941803953) 18
(-0.0145233457763994 0.00243692666217922 -0.000179912070480511) 18
(-0.0152264792382006 0.00267975098256481 0.00172379708487188) 18
(-0.00311983113163329 0.0070035978764206 -0.0030925606638544) 19
(-0.000348558184166609 0.00708510940145908 0.000844414974450972) 19
(-0.00109503672299724 0.0028470830165396 1.40765646338299e-05) 19
(-0.0010912696967078 0.00330892552598941 0.00279893427672209) 19
(-0.00583368933487668 0.000104003308048007 0.00291959372329458) 19
(-0.0044123143953996 0.00165531981078461 -0.00269104075855596) 19
(-0.0023353840141533 0.00357504313433017 0.00207622616168511) 19
(-0.00605044984321962 0.00412771456283518 0.00404073754522256) 19
(-0.00741154108017723 0.00700982668010864 -0.000258109645794924) 19
(-0.146317334630693 0.0125773452598176 -0.00222852406471827) 20
(-0.150036349787403 0.0134007110790624 0.00216732499371596) 20
(-0.147132397844979 0.0143319082458798 -0.000162771675484041) 20
(-0.151821586991287 0.0128334240906603 0.000304737636980608) 20
(-0.149683374123878 0.00992924448825239 -0.00319560696133797) 20
(-0.151015143840431 0.0106132228990554 0.00344097351782779) 20
(-0.150873681098646 0.00838948532949979 0.00139491452818845) 20
(-0.138453449523203 0.0135401494732303 0.00123738839293914) 21
(-0.137366330571304 0.009131574073358 0.00237000665307149) 21
(-0.142141894159894 0.0137187319785109 -0.00243004549927316) 21
(-0.140085573378517 0.0135836112465892 -0.00339876444718575) 21
(-0.14018893547025 0.0098989749472015 -7.79465168286838e-05) 21
(-0.143272365730571 0.0101879805340347 -0.00154214890462143) 21
(-0.14479440036423 0.00979548238846582 -0.00142504297049719) 21
(-0.130653710569265 0.0128028196013504 0.000709145927685826) 22
(-0.13062367179262 0.012496009998046 0.00260896105199295) 22
(-0.136177035524357 0.014184253693254 0.0016328999424764) 22
(-0.132195069100121 0.0138490117964237 -0.00175393875642416) 22
(-0.131947642405304 0.0114736232140177 -0.00324793123501016) 22
(-0.131406230956996 0.0117678279888765 0.00357359195743269) 22
(-0.135756733736109 0.00873116081215409 0.000685028640491794) 22
(-0.136062101326119 0.0094817625204967 -0.00200901888870828) 22
(-0.123436889045624 0.0125998885311053 -0.00203368063466365) 23
(-0.123636474353686 0.0107231299860734 0.00154625129896977) 23
(-0.127003559070077 0.0110823312723478 -0.00379925394280082) 23
(-0.126810792785828 0.0119917040079539 -0.0040239509800066) 23
(-0.124142506552363 0.011446726876511 -0.00419146979995575) 23
(-0.125457822953208 0.0121653541145187 0.00131854749537533) 23
(-0.126691202985042 0.0121495681341735 0.00388635371600094) 23
(-0.129269371411674 0.0100645098988904 0.00252038996162144) 23
(-0.114996927487492 0.00869854128417345 0.00143395525573359) 24
(-0.118358747752512 0.0128227288189877 0.00134712191768141) 24
(-0.116707542416278 0.0110183754670759 0.00361660790098859) 24
(-0.119888567258109 0.00776293826221866 0.000640999728525106) 24
(-0.120268404700926 0.00802929356821916 -0.00305763292750182) 24
(-0.121187247658542 0.0111668243266351 -0.00240379938343551) 24
(-0.121542309113819 0.00972112391558922 -0.00276847909833616) 24
(-0.121804096750885 0.00865062064299696 -0.000349795233688812) 24
(-0.111472801645628 0.0136106453492762 0.00146685483240746) 25
(-0.110504953966544 0.0149294027975276 -0.00258141714108692) 25
(-0.107901192725651 0.0108337260625883 -0.00322279210494726) 25
(-0.110219580523495 0.0110749996428091 0.0031964077776512) 25
(-0.109573283220486 0.0135282743921001 0.00410822658661519) 25
(-0.11288785527876 0.00876973843981689 0.00158792025336161) 25
(-0.114018563166326 0.0137400386662912 -0.0034022606107832) 25
(-0.100085810563988 0.0138511646274239 0.00216241649556023) 26
(-0.099802615342071 0.0104120601889777 0.00190407845326329) 26
(-0.103400184275927 0.0146726208561101 -0.000919812818065567) 26
(-0.105016692254464 0.0132015252873089 -0.00273324194037554) 26
(-0.100545497219582 0.0135648691168298 -0.00279714506659767) 26
(-0.100527280224967 0.00925877332427058 -0.00339069738019405) 26
(-0.101085805550376 0.00868396341187433 0.00294780351161204) 26
(-0.10198865311333 0.0139076118646473 0.00342626653347701) 26
(-0.10319102857792 0.007635144398975 0.000313526864977772) 26
(-0.103497730816488 0.0101447675896685 0.000906583206864594) 26
(-0.101607363207075 0.00857447909130514 -0.00143685577311794) 26
(-0.0949038103073402 0.014593595771275 0.00330926179155314) 27
(-0.0927993996941112 0.0137318397974393 -0.002099563838266) 27
(-0.0929450347413004 0.0102117646117929 -0.00329785884053091) 27
(-0.0989931457935001 0.00922735112662759 -0.00373213537087864) 27
(-0.0838688207732803 0.0122294688659198 -0.000858818836215274) 28
(-0.0879380272616348 0.0140668857304293 0.000711867110782812) 28
(-0.0860751357351647 0.011226418985051 0.00369246058177705) 28
(-0.0848618988037236 0.00897646250181467 0.00383950418872861) 28
(-0.0884925580599617 0.0137868852373081 0.00289088813909487) 28
(-0.0905743963753285 0.00811241655681704 -0.000628333782177213) 28
(-0.0910845208698722 0.0112193571862661 -0.000412048253089849) 28
(-0.0765958116197174 0.011475430272342 -0.00332540320871375) 29
(-0.0771044402674341 0.00947044137210529 -0.0020325307458857) 29
(-0.076895788635713 0.0100197840611733 0.00281692208726994) 29
(-0.0802938322059117 0.0135536519902939 0.00136956021648564) 29
(-0.0801487817367687 0.0127861762905541 0.00169154588060971) 29
(-0.0780623393490034 0.0144417175998404 -0.00336609074777997) 29
(-0.080419608133807 0.0102666579023666 -0.00116704565476505) 29
(-0.0784921146326956 0.00815462551881502 0.00364693808906338) 29
(-0.0798288731438831 0.0115036811330484 0.00220909699394603) 29
(-0.0821066222210368 0.00794551949896192 0.00240627691763042) 29
(-0.0788283922942178 0.00820186863248262 -0.000364948818504843) 29
(-0.0807650270742981 0.0076054049624681 -0.00120947436621208) 29
(-0.0689238958808122 0.00888318896243678 -0.0020789946955601) 30
(-0.0740628353273854 0.0137662797519435 0.00189574735591864) 30
(-0.0702897681933374 0.0138209264212439 -0.00272919316298545) 30
(-0.0730051851073659 0.0113211989534119 -0.00402373656147437) 30
(-0.0731702496468633 0.0102675835581091 -0.00363782974323477) 30
(-0.071018878423531 0.0110590083668562 0.00403671117708) 30
(-0.073939726285664 0.0111737808870776 0.00334733286768366) 30
(-0.0742967912457645 0.0080119834780587 0.00344557413424416) 30
(-0.0693605863170599 0.00800809692133111 -0.000609484639785583) 30
(-0.070484049978625 0.00832804247711002 -0.00113187521404172) 30
(-0.0751726813849731 0.0107585898924218 -0.00293039722820546) 30
(-0.0751887877939353 0.010386000787665 0.000263037731966532) 30
(-0.0641308738136566 0.0108998799175306 -0.000560347043886295) 31
(-0.0625761111476321 0.0106664580553839 0.00067485864209884) 31
(-0.0660535353244464 0.0146133038873377 -0.000246614240695036) 31
(-0.0641257135901573 0.0129966332600829 0.000373264984319412) 31
(-0.0668662687162729 0.0125227845454204 -0.00406047633118195) 31
(-0.0627008901329922 0.0105622290176034 -0.00404856313537529) 31
(-0.0663741171988631 0.0123696555548863 0.00257848791386503) 31
(-0.0651726795433768 0.00817808765691978 0.00320213294711612) 31
(-0.0641985082030123 0.00877364807762327 -0.001586842380222) 31
(-0.0674360600456477 0.0108465165886992 -0.000812471138102834) 31
(-0.0673082454678927 0.0113786438826987 -0.00275906840127809) 31
(-0.0545144747473719 0.0133954667697999 -0.00268941769112523) 32
(-0.0534943062324063 0.0122120763548047 0.00397125833177704) 32
(-0.0601545118302491 0.0148790242143634 -0.00175107887188237) 32
(-0.0595977869259941 0.00885505347407548 -0.00316319042008734) 32
(-0.0577786563397838 0.0089795705579364 0.00392656416492419) 32
(-0.0548877711981385 0.0135538147718493 0.00408983198485233) 32
(-0.0591829884194848 0.00834746661850226 0.0028474363425099) 32
(-0.0466658594223366 0.0101766602305182 0.000134851909977001) 33
(-0.0486045701829021 0.014235502027665 0.00297659591679001) 33
(-0.0464632410340217 0.014818539358605 2.4219854637766e-05) 33
(-0.0481449065583176 0.0134403476022045 -0.00151296437554207) 33
(-0.0474488020248269 0.0107125952274681 -0.00373173392596625) 33
(-0.0530058369159849 0.00771795696071979 -0.00401390416471978) 33
(-0.0463444173508625 0.00923042288046677 0.00388283804869688) 33
(-0.0508501999628693 0.0126031843432692 0.00387489672132536) 33
(-0.0532744929660297 0.0123106975690126 0.00279109293497407) 33
(-0.053304313277482 0.0088284993075586 0.00191528660724612) 33
(-0.0401438418023771 0.0125520344700495 0.00106246268608091) 34
(-0.0447462262216996 0.0144787035555603 0.00326957768146361) 34
(-0.0393293181121218 0.0149534272482979 0.000679257772501451) 34
(-0.0400630943441272 0.0137799608393072 0.000686145337798312) 34
(-0.0419486921839635 0.0133449413219075 -0.0030464720258197) 34
(-0.0404843680212109 0.0101922515438292 0.00340450972730628) 34
(-0.0431195394636451 0.00904527793965903 0.00356651755513335) 34
(-0.0444273650556919 0.0111446491729304 0.00375743056325666) 34
(-0.0445755991304964 0.00830529508825347 -0.000793508024981294) 34
(-0.0424181279578092 0.00906923042523194 -0.00185124767233887) 34
(-0.0454864034032517 0.00955163246459231 -0.00389939335002406) 34
(-0.0457186077208137 0.008330520295498 0.00313811204513923) 34
(-0.0313248803978637 0.0104505841483055 -0.00305168615973624) 35
(-0.0332559037964813 0.010398414849912 0.000614969252391837) 35
(-0.037604364205002 0.0145909124844926 -0.00271377527594345) 35
(-0.0337694316314752 0.0115798366906725 -0.00242788855136732) 35
(-0.0336955759597772 0.0098593918473485 0.00253627369161684) 35
(-0.0342863455922823 0.0103714832049509 -0.000329930244671954) 35
(-0.034880149668323 0.00786033858581023 -0.00112502030499048) 35
(-0.0370940277776832 0.0109506357888723 -0.00162848711486903) 35
(-0.0379831343990409 0.00957689867679343 -0.0025098247387505) 35
(-0.0371446069559596 0.00978059207968969 0.000304440045290045) 35
(-0.0240969037398845 0.0126097253020455 0.000172684779035735) 36
(-0.0237447525846606 0.00985252363040443 0.0011891587108813) 36
(-0.027724881563352 0.0147291201693541 0.00134344739803593) 36
(-0.0254309306303564 0.0148755908631381 -0.00147065806490114) 36
(-0.0268342625001784 0.0122162330093998 -0.00315556273598505) 36
(-0.0280443847917424 0.00911777667989289 -0.00269657402140555) 36
(-0.0261077846426843 0.0115934772092135 0.00105552653035829) 36
(-0.0270709672451872 0.0138013263233819 0.00382117630340212) 36
(-0.02353728127732 0.00810246308362846 -0.00318873590613278) 36
(-0.0287026113616065 0.0123257953549929 -0.00110804110735876) 36
(-0.0302733085253864 0.00893639549687588 0.00161466475729724) 36
(-0.0152667328662467 0.0113558451565075 -0.00181903214647787) 37
(-0.0168176857838827 0.0110657028043804 -0.00161005209404027) 37
(-0.0155678723334268 0.00835154529120711 -2.27647596032726e-05) 37
(-0.0160055797316731 0.0146391552715963 0.000904565476358346) 37
(-0.0172550722556145 0.008588698357035 0.00320363534171212) 37
(-0.0226530613063377 0.00761035041416286 -0.00125764683125014) 37
(-0.0184497988358711 0.00886883644191985 -0.00159491668515584) 37
(-0.0225554504828211 0.0126711825252086 0.0012336415420866) 37
(-0.0221923201369843 0.0131466092285559 -0.00215422278174665) 37
(-0.0220728133734763 0.0122186526619591 0.00317492417112568) 37
(-0.0227871019349413 0.00860640467548219 -0.00158685609483254) 37
(-0.00861591813139251 0.0125714580114492 -0.00241034756002751) 38
(-0.0091883521077458 0.01086578971428 -0.00172184971231202) 38
(-0.00768118552529635 0.00983166002553781 0.0040383815240239) 38
(-0.00803919972256834 0.0112167808145317 0.000517218770328604) 38
(-0.01055360003914 0.0138065790516933 0.00055675582975257) 38
(-0.0119302637342224 0.0129946406820344 -0.00146632524571292) 38
(-0.0136480368087234 0.00987216358932422 -0.00253364227284794) 38
(-0.00934269131541476 0.0126796434172747 -0.0040249625914216) 38
(-0.00946156334741772 0.00912627620486165 0.0040937016608375) 38
(-0.0125512479901474 0.0118160200130302 0.00241093115557371) 38
(-0.0108156819598116 0.00875905888518799 0.00103121026280915) 38
(-0.0119006445789245 0.00810643108662112 0.000801506989115643) 38
(-0.0148149461052466 0.0101472551793115 -0.00225183014553417) 38
(-0.002761487338262 0.0130891825182102 0.000184757469513326) 39
(-0.000875352334078293 0.0133185480766701 -0.00215473925060898) 39
(-0.000559073114508367 0.0114558603242141 0.00194941747704238) 39
(-0.00377090050060403 0.0123583041400361 -0.00210447698381923) 39
(-0.00229248621877911 0.0100995428746934 0.00208689251486345) 39
(-0.001240538656556 0.0116308992132311 0.00302235510824849) 39
(-0.00453750640190586 0.0119067137794454 0.000901553284594822) 39
(-0.00485216538756896 0.00843073541469634 0.00188957584290249) 39
(-0.00355191988122611 0.0081199070716812 -0.00217797808073042) 39
(-0.00702800862358002 0.00928182609922835 0.000611507559981687) 39
(-0.00730114537033022 0.00811142785290071 -0.00282836883142276) 39
(-0.145380070735576 0.0197852370653388 -0.000513766893162649) 40
(-0.145907293538551 0.0165224240143697 0.000929099458878301) 40
(-0.149958298436409 0.0201668377237617 0.000493572193213791) 40
(-0.147028133840895 0.0206714281527646 0.000784847115602052) 40
(-0.150647376911703 0.0169265464961141 0.00134630074813156) 40
(-0.150058398335032 0.0219356165278476 -0.00408508488855254) 40
(-0.145863912831122 0.0163937531954558 -0.00332916047269811) 40
(-0.146259994654458 0.0177593758860228 0.00359431745914104) 40
(-0.150957789166736 0.0223541043371212 0.00413895622218378) 40
(-0.148346845973278 0.0204021208553915 0.00409407905384059) 40
(-0.146508981787296 0.016001885288161 0.000970127165751319) 40
(-0.13745471523659 0.0182600948755714 -0.00105906916074055) 41
(-0.137997361729848 0.0212658406514912 0.00150203310558317) 41
(-0.138028394609588 0.0177301377620473 -2.19666322579571e-05) 41
(-0.138216094047963 0.0180666887414013 -0.000340792941647308) 41
(-0.14028362215789 0.0224677613670587 -0.000651036918836796) 41
(-0.140712674122605 0.021484672257673 -5.17672020415594e-06) 41
(-0.142571382917458 0.0206743283117228 -0.00247639595567412) 41
(-0.138986655486429 0.0203438279054355 0.00352297182721036) 41
(-0.142260680653292 0.0176515234756016 0.00250709565026626) 41
(-0.142454732212636 0.0155487951024344 0.00194056797884207) 41
(-0.144597608343695 0.0178204456020275 -0.00313637562592911) 41
(-0.144545729581478 0.0205317899951983 0.00284462656150686) 41
(-0.144065869286351 0.0165969998655065 -0.000657073631212396) 41
(-0.130464575438462 0.0204573669138763 -0.00312383246078499) 42
(-0.12971891783312 0.0183130015328845 0.00382801277978916) 42
(-0.135269623927531 0.0222426475127787 -0.00118211590045481) 42
(-0.136993992553346 0.0223972055302197 -0.000579271275492374) 42
(-0.130856493149562 0.0220010609431308 -0.00134860696151365) 42
(-0.133573229743884 0.0210339459762719 -0.00344207906035378) 42
(-0.136000383584723 0.0155226777511169 -0.00379725060497548) 42
(-0.133420053216216 0.0184327802225262 0.00100937258542137) 42
(-0.132229944515146 0.0153553687706142 0.00274221304313601) 42
(-0.134983775865388 0.0151326739599643 -0.00374461412539196) 42
(-0.12405155913256 0.0194923772710913 -0.000836875609248443) 43
(-0.123136892309332 0.0205779911012352 -0.000460836091870967) 43
(-0.124105636998289 0.0220342351988823 -0.00283715313373812) 43
(-0.128065755334203 0.0217454216755466 -0.00350505542227698) 43
(-0.127066261983843 0.0175235192562863 0.00145941306145961) 43
(-0.128125393960339 0.015588614647117 -0.000819073688304473) 43
(-0.122611326085609 0.0155081306134825 0.00200804141819659) 43
(-0.129387161191396 0.0187331205749483 -0.00125883869365692) 43
(-0.128079231306199 0.0171336601717508 -0.00044995947279405) 43
(-0.114931413531191 0.0200131503994073 0.001680314191627) 44
(-0.12066384161994 0.0215121466264195 0.00087689497362337) 44
(-0.115548840647147 0.0224697340240229 -0.00147208633347167) 44
(-0.118097849204446 0.021606631643847 -0.00265879335203734) 44
(-0.118884328540461 0.0188388200589577 -0.00264307686754885) 44
(-0.115191760515357 0.0201868955778875 -0.00397306244794709) 44
(-0.117743383213303 0.0178477586592723 0.00281697158465403) 44
(-0.118271152848195 0.0200134716533984 0.00159408129179243) 44
(-0.117202198030758 0.0161068948585515 -0.000895738934409584) 44
(-0.121585801020954 0.0175825344934069 0.00347631451745507) 44
(-0.108169339284857 0.0187289112109761 -0.000328006072280403) 45
(-0.110747801127018 0.021869082825293 0.000112847470388485) 45
(-0.112557770206669 0.0222395013279821 -0.00102617583416577) 45
(-0.113091881051501 0.0222458818196705 -0.00345208500311407) 45
(-0.110041423913012 0.0173202288254161 -0.00334886686784604) 45
(-0.11044713673107 0.0192138328441749 0.00062545071459221) 45
(-0.108599266986478 0.0163497806335639 -0.000871355643183773) 45
(-0.113476456614741 0.0176146274476897 0.000405623798294515) 45
(-0.0997224564392386 0.0185467408953252 0.0021607471906166) 46
(-0.103131501921181 0.0210727836312309 0.00130174613493567) 46
(-0.103840480122158 0.0202073319077944 -0.00336704710439236) 46
(-0.100386281414737 0.0191521272846539 -0.0034473431280252) 46
(-0.100909934223755 0.0175856833788492 0.00256603415947003) 46
(-0.10339110295861 0.020115854189535 0.0018496740865771) 46
(-0.104451472880956 0.0154434025881343 0.0022851259811876) 46
(-0.104676968382314 0.0157972456531917 -0.00311207129917863) 46
(-0.105595031263134 0.0198995270528697 -0.000868646705629735) 46
(-0.106273966404729 0.0178311020838612 -9.71356227988261e-05) 46
(-0.0921179388273813 0.0194687132990608 0.00337232245564317) 47
(-0.0929324766404146 0.0165821907340357 -0.00227116452506179) 47
(-0.0980925115403554 0.0220607741357606 0.000601004371272831) 47
(-0.092584931362309 0.0224297092281206 0.00027608771636191) 47
(-0.0947052689956843 0.0202008968978546 -0.00167401220601057) 47
(-0.0971972784924087 0.0165489695908236 -0.00352501229999609) 47
(-0.0936639882838126 0.0163461581438601 0.00351229821882459) 47
(-0.0960926586697762 0.0206881363923887 0.00321944752556002) 47
(-0.0969103839916535 0.015193278235363 0.000502849375742736) 47
(-0.0987013124936775 0.0191237348769717 -0.00181899595232221) 47
(-0.0989749338720355 0.0154158745102705 0.000260243600086867) 47
(-0.0854494373856663 0.0167506745009619 -6.72672325745241e-05) 48