/*--------------------------------*- C++ -*----------------------------------*\
| =========                 |                                                 |
| \\      /  F ield         | OpenFOAM: The Open Source CFD Toolbox           |
|  \\    /   O peration     | Version:  2406                                  |
|   \\  /    A nd           | Website:  www.openfoam.com                      |
|    \\/     M anipulation  |                                                 |
\*---------------------------------------------------------------------------*/
FoamFile
{
    version     2.0;
    format      ascii;
    arch        "LSB;label=32;scalar=64";
    class       vectorField;
    location    "0/lagrangian/dsmc";
    object      U;
}
// * * * * * * * * * * * * * * * * * * * * * * * * * * * * * * * * * * * * * //


6281
(
(1662.09326281598 -263.714700171543 -129.092144861229)
(1253.21639471185 218.688126830162 217.921168202491)
(1916.53194103811 -21.2676698575863 153.801305705966)
(1703.8132637691 141.936129546514 21.8645520826184)
(1389.15674529086 -153.362584419542 54.7803122823235)
(1372.27358536905 -53.8353503890272 38.8375823160185)
(1878.95977606125 208.321689378686 -107.884148279442)
(696.518352213295 -55.9445805762762 -203.168768258812)
(1988.27931341671 -435.824705941935 114.326740109261)
(1599.1376856623 -619.682813529378 286.711649854078)
(1304.65840806758 -89.9305520910817 -168.451102336909)
(1656.49335675514 -297.460127853071 58.2599654069827)
(1403.35165840508 264.78392598735 -880.737064966337)
(1616.09654081071 223.583646962915 219.905820168024)
(1621.64899861805 17.3922932208288 567.138785895941)
(2060.37741696673 289.783032846993 291.517576682271)
(1172.12719198735 224.508921172452 -77.5538163174827)
(1765.87175725182 43.8690781103003 593.972144448997)
(1263.6747830177 160.727141011502 133.693415337944)
(2245.4074282759 556.299707336015 98.8775390071625)
(1837.86843973746 -246.711658947321 -365.574373667376)
(1760.07196270891 -254.355757038051 -412.519118503187)
(1384.82991853926 129.20411425748 -55.1855727709356)
(1906.90216639047 -369.630193472168 -434.441783163507)
(1946.80216178434 -545.970515219858 -30.9974966859575)
(1910.32331882073 -454.84696828614 -106.276703891663)
(2057.29089803091 61.7054648437246 -605.692339099604)
(1238.23467920706 451.850479141438 -17.8617732549283)
(1590.75485951453 281.262548925603 -103.07691066692)
(1742.55566003473 12.6824074539456 -330.955638011088)
(1692.48960908864 617.093381719622 302.26584310975)
(1663.04310925233 103.190430805032 268.136593061559)
(1756.42701115309 99.9057438295418 -472.824911971693)
(2033.55396639218 325.041990749916 118.147622269794)
(2077.04720125351 -73.1815187660578 63.0296851852145)
(1454.53946188738 -505.043323678222 158.982917109537)
(1991.38838314234 164.530819597524 -315.893862996881)
(1698.10363561713 197.565435648766 -245.555002593249)
(1514.48618350974 -314.631607825466 135.967565293927)
(1908.97557557726 -290.614719266568 -23.9980845662846)
(2014.34590631738 -259.588638800952 247.575283592531)
(1376.40484836661 -59.5866124477525 -321.679344520136)
(1702.74479287455 248.9759158402 172.27812965957)
(1496.15765844884 130.443722166244 -646.46115171849)
(1571.93052261783 -741.89438176265 87.2240501244243)
(1837.73796148532 181.044007355195 250.901880490556)
(1809.50948851688 -58.8967130726435 128.433253645114)
(1612.98848930719 -172.329941422897 -346.114378564315)
(1446.38353700974 389.312533517832 -123.600048743148)
(1651.66411038942 -396.739364519936 -90.950957297761)
(2096.18806902344 268.158375640313 -342.865045289422)
(1268.83038422576 207.712339059399 -20.5937475798916)
(1488.39966751818 299.133039313754 405.960233873221)
(1667.03815377942 498.170831096692 175.831009915949)
(2110.15911849953 -307.265314438537 113.896892290046)
(1513.12175206897 -156.01285091016 -60.5070689779589)
(1880.55980655212 113.295398603077 365.242486201643)
(1696.83051203175 -756.332028263078 -112.536430098908)
(1901.18344820436 277.674587342185 -428.285010307868)
(2083.99200962023 -307.351062118373 424.340941182199)
(2499.07923643708 -187.284916471604 -68.1320913106293)
(1529.51382939875 -194.946494866813 202.157878800554)
(1659.21927538135 -511.602437692869 559.455580932328)
(1888.08927061373 147.437552035908 208.736564396554)
(1814.77034819845 310.636048720858 272.855828867407)
(2105.7097175364 251.881246810057 79.0449057905629)
(1287.80007212054 367.440907640586 -540.899956775199)
(1835.24752647296 -210.381605010333 -481.229699147498)
(1709.80318083054 -46.4561748904375 -187.501508616135)
(1383.46496772117 53.3638308155378 -73.1109658265073)
(2150.03284969559 -614.341100110855 -375.708136380364)
(1912.66026920812 255.77131703352 -358.75371132755)
(1927.95724127467 364.126787961544 -21.0035403925935)
(1423.40977273887 -201.343314691385 -118.621741283747)
(1774.16403675777 68.6557169185196 43.6598269823798)
(2040.77742315521 -531.556303431081 -34.7181816629453)
(1868.21304988223 204.376444400706 426.335308954818)
(1673.02886530572 135.942662499432 8.69612257608652)
(1864.02744147647 89.051663744901 -506.317510575045)
(1590.66008672177 -195.983686807586 210.538752224015)
(1504.73761253072 -335.331181866977 -202.104019711047)
(1241.88688963763 319.528391140455 -5.33182379115092)
(1930.50625649416 -176.57646586689 167.567457446519)
(1382.81027462957 503.164873040863 291.646559331994)
(2040.02007556958 -264.575542995911 504.879880475565)
(1467.83622868058 -25.4914918595919 -222.318574064028)
(2104.99074657092 -87.3576111919388 -131.408373825557)
(1849.51229007218 -481.923234493939 -415.921588171751)
(1952.80409366632 -41.6002530171969 -223.061639116282)
(1524.9579109981 141.699444378701 -113.084907856987)
(1821.43682548766 -404.502037771098 -131.464632754228)
(1245.4987678681 -54.025557450031 -242.045251070718)
(1973.91679170269 50.9458367980594 -140.792301404028)
(1334.4254363417 273.364288786168 -426.541951032308)
(1591.52898857637 -87.3113513099597 546.079875132093)
(1850.54873308106 62.4384978108833 -9.71866534390992)
(1915.75296986434 -151.924633279415 -141.44024031249)
(2121.09195505697 36.6649755827947 63.6183084729279)
(1851.90655826919 102.564507135563 25.3909426839354)
(1744.68349459048 191.112321795881 282.052196170676)
(2004.96053060103 -113.773626553233 -467.757353398696)
(1801.04468022346 -301.283051606331 -535.620390693565)
(1822.2577019537 -88.8667949903801 3.3684539163217)
(1439.80434399731 138.471628131562 543.30596136263)
(1939.15767027081 -665.508623057841 108.76825198362)
(1395.0867090717 -130.229495268918 -33.774059462955)
(1303.09450582193 70.7267449810242 -174.447339128672)
(1628.79045038305 62.7468706005481 -199.99387785429)
(1456.39682564439 -413.419906976532 -198.867354293376)
(1820.71506209449 -193.387267730902 -115.300563861119)
(1698.79561113079 402.274795384099 -306.235274168014)
(1755.07074301939 247.995899029093 143.209108338295)
(1667.68479342349 191.827824947919 -18.7435185992575)
(1832.49122758321 138.381596794287 -626.717381430716)
(2057.89222534855 -378.119188472899 -165.656347227127)
(1500.26104497288 -82.7554692374132 -224.076575329243)
(1676.81867731363 120.974282358764 43.9374331959055)
(2029.97181078774 0.963823044299527 -10.6246503400931)
(1221.95841458542 -542.39940152432 -398.132383921348)
(1638.81465052807 -170.559682181393 326.247023644696)
(1529.2184959118 538.504639752276 36.5019434890622)
(1393.47452420325 -319.503955190933 372.517589743812)
(1932.94620798165 -661.728164065405 275.705868496566)
(1237.29233016142 -552.064140581843 -28.1634109587903)
(2064.28188733668 225.428419250594 99.055232950532)
(1578.03593998032 125.286228099247 -126.335403829553)
(1382.02423932614 137.585995231976 -218.129332216242)
(1442.45567989626 6.73833363650337 94.1324938819918)
(1361.43891177893 -123.336474729432 -153.530286204939)
(1094.48184118498 -33.3064683101652 367.094993703404)
(1891.26858700461 -574.997478112859 -202.347334878542)
(1841.13063931077 143.788901400029 -112.296073104514)
(1558.34742688688 -61.9152165677186 -230.346006721222)
(1823.42288927977 308.741772553497 257.461988871769)
(1711.13625093917 -33.6286708009547 -268.191324352914)
(1227.05837616171 315.055801294277 -139.393696442603)
(1715.05331563611 -548.85953269402 -785.356121236511)
(2047.77024850992 -120.854085098662 -234.488029267338)
(1473.85798570721 315.407784273509 504.553382303418)
(1516.30315497695 415.605595865968 -466.278677438837)
(1890.12716938997 -158.993648683967 214.85667807463)
(1884.18747584929 426.074831017773 378.104710138705)
(1679.62204459325 -591.139483608994 -42.3544349158083)
(1672.2873128767 -459.900581751669 760.768925681144)
(1713.27698436119 549.521095194726 -38.4207089296341)
(2556.0209705712 69.0586174878146 -149.40613880032)
(1593.48759230577 555.548200343753 -246.696013614405)
(1422.99634955386 116.526804237899 -40.4588250586154)
(1886.2144131972 415.264081405776 -345.565711679758)
(1827.52261582017 449.979458545061 -76.0226730997458)
(1556.67445117704 742.898371851543 -150.383128781692)
(1579.55024668294 194.274266816002 6.54120759065724)
(1612.7406514833 -136.016129664863 234.698775329018)
(1705.80385664715 -499.402365014126 -159.809854477227)
(1481.52346488727 101.612851390802 -36.3838516741443)
(1903.9980735621 -185.832442195663 -44.3968126497416)
(1547.47961939035 98.5755889113729 -532.993902340643)
(1534.34541649318 -273.37372375237 -180.249136868403)
(1635.32727180256 72.6657130521416 340.436223834132)
(1999.16891224566 -373.987358218765 146.527078030383)
(1678.70348018844 201.684122336925 169.465830863733)
(1940.59923762746 -589.305618660519 127.392643660481)
(2285.9997753682 -73.4887715071533 35.9739594842312)
(1829.35816884555 -86.1085063810523 -36.0503782832327)
(1465.76176116435 -14.7889677851 28.3361816319406)
(1826.83698482252 516.02940660009 -555.881576657293)
(1619.85712952778 -105.776575880702 -715.675207302193)
(1716.62859034506 189.395341341615 109.79958344115)
(1638.84108525568 446.360551708435 89.5522635607991)
(1939.14533614141 -90.9244658668004 180.04112645191)
(1718.8174858923 -101.163570864814 -205.843817718896)
(2046.26434301358 164.204333445501 143.59917456624)
(1644.47958787216 -283.740901231266 -5.81414534192364)
(1947.95549900219 236.816739908888 521.815205968413)
(1632.49705563299 -230.660127866236 -281.083432670821)
(2025.1981224727 -57.5859738063572 -418.9203660909)
(1502.99085318089 260.184669123195 -441.419035263638)
(1820.90541386531 -508.850186154308 228.245115887665)
(1433.31808105913 315.568218619992 226.74749241177)
(1614.1483860776 -399.275230985206 -667.018536599059)
(1654.74898560126 388.673307388298 753.154348968549)
(1226.02942184896 -108.27364231747 -182.128638663965)
(1719.68796768269 -53.8542261010257 357.618609003847)
(2097.28207490377 107.185280968801 162.332286273431)
(1764.68071327373 -137.644031354705 -15.0591196014054)
(1714.74456503615 -6.65172608487089 -11.035677676332)
(1786.52561997332 -241.125852436232 -217.88798713753)
(1402.09025796293 75.9667291034805 -17.3759916614844)
(1859.37712112672 -347.342395537058 312.697547242768)
(1791.76803128208 -0.579983932685942 -317.758952545505)
(1752.33447444884 387.491525678994 -625.733001581792)
(1554.41238734628 52.9813806203287 395.410387701063)
(1977.41437135465 -160.326978204773 -402.756920143519)
(1188.06810638727 -276.352729985897 389.706647691056)
(2005.55260594941 -30.0096295119605 523.132497887775)
(1619.64286541701 320.418494085193 236.371543790932)
(1404.23311804474 -149.548355707841 9.59119528722524)
(2097.72154762029 193.595563347194 81.4941594440542)
(2006.48683815909 -199.193244618374 -332.467341074481)
(1395.14473573901 -483.463675465079 728.098958133212)
(1600.4124182883 2.78623337574417 -395.375694857899)
(1648.18203868696 138.851592239859 26.2619561324024)
(1684.71504192318 -149.452152361768 528.427879380354)
(1367.31832747461 -40.1522172534408 -233.185568346851)
(1339.01132645074 -280.87041029121 147.681480660795)
(2144.0482600412 62.0171939235135 346.322509073374)
(1902.44690082728 362.068183744568 -42.0499814537742)
(1769.54544080664 -236.715675000432 141.330360444935)
(1854.11135551965 503.160552512654 66.57324872162)
(1267.89860128167 31.8872429503082 -35.3096034717729)
(2004.41288769479 -125.581775530523 -309.822893212546)
(1859.0557159847 31.3752338017142 143.804514696705)
(1820.56843859674 -530.292819101756 2.19090572547648)
(1632.99549623752 488.862446971354 -39.8213320094321)
(1601.42320724173 199.68631242492 -168.259305251468)
(1946.31161579493 432.499038389215 452.055893716539)
(1629.56510740428 212.867409668035 343.091990377385)
(2241.15010712542 221.507029853759 64.3668191438294)
(1378.09484939318 9.65725423460673 22.3592504768603)
(1841.29862827888 -442.763180204204 -146.218746313636)
(1674.06252959422 -25.4210897302981 112.137932836511)
(1479.13395238605 360.436133611121 -393.794106891926)
(1626.55665896684 268.113365633148 -60.0523453156407)
(1424.64761515539 -621.653869247609 38.5014155495287)
(1850.02804137111 328.392216655899 614.722361530555)
(1694.28373998626 260.567425718754 -58.4914244299823)
(1927.78249060749 -264.140083215774 -180.834088965034)
(1499.38151038571 219.960936366646 -228.818232135895)
(1509.97092977675 381.032226331048 -199.253706457902)
(1939.27851038861 29.1561926086454 -502.218587647458)
(2227.40927855208 -495.317451446274 -175.225453380573)
(1553.15263336942 256.002877027831 51.8415650812026)
(1315.90530309354 -119.271820399642 74.3625135280866)
(2062.65438542228 44.9770795735214 -237.664634276096)
(1297.91315947711 175.383343759053 389.930069654499)
(1376.75828514631 -15.0958045511274 -450.670395828524)
(1303.40827432625 503.131440988316 -237.379640506138)
(1603.55488821147 102.391541846814 -335.899914097215)
(1822.45623600805 651.956674970811 -271.485739396103)
(1544.82747709402 137.795445241907 -717.119316059373)
(1438.03899975568 448.517076061064 -310.536250483285)
(1816.18440779276 -110.19554248299 -274.809376160586)
(1943.44246118418 -113.47382467096 51.8820262783274)
(1509.48057928734 -150.873357006277 -130.300291756107)
(1796.36791833312 257.449771254859 34.4101011147368)
(1788.75357453344 -103.07952814212 48.2670564357784)
(1953.42241838492 84.6379279572154 112.020815272824)
(1930.63616174968 61.0409002004889 -229.141866777)
(1513.83856653005 366.453661868284 199.010877076268)
(1509.91391911195 510.481651941685 425.360357560448)
(1796.39270840955 203.569524313873 208.467486298441)
(1721.62416005549 -177.352265183143 195.717767209455)
(1624.00706592034 -33.0685486614589 159.073767792019)
(1625.83553318534 -301.031657828249 193.756571035006)
(1768.46703788069 -587.237400289326 471.73300849748)
(2228.84444425272 660.287705609508 -301.151432614739)
(1665.47415779392 -51.6997676584294 -276.809875559011)
(1440.13910488245 262.944704714593 21.8494641883414)
(1609.11740922256 55.0131938282004 -8.10119042021983)
(1899.1224736163 -481.901793756887 -402.412753752702)
(1976.60009008381 183.942976252154 -197.672117360472)
(1788.76023399592 -513.40788395014 -193.346824013075)
(1239.00099241772 199.621654004484 243.619169783433)
(1984.17930590137 -50.4285570898192 -29.6292409536066)
(1592.68014367125 -156.628397072707 -237.718204009831)
(1641.77644925478 -58.7218086951571 -403.007324979536)
(1716.00017991448 88.4423318857624 -81.6223298125057)
(1126.76545647978 313.126723233472 -127.745812271723)
(1993.86031296887 -166.796185443696 285.696938866065)
(1816.49891260726 147.818656914544 290.613194585617)
(2265.76941130167 774.885106277155 88.5507421615582)
(1302.14767896757 38.8070491239733 -189.105260405863)
(1644.75624143507 -182.758575511416 44.2754558158543)
(1682.64067434677 515.646199103052 -457.047163544315)
(1583.88960042261 -133.493082095212 85.9568569353909)
(1831.73727434551 206.345821520157 177.359494068224)
(2030.72511722704 226.159515436947 -285.365332956486)
(1364.0551974451 229.153842090914 -209.501445250177)
(1538.83746588624 109.496187603684 142.83200234101)
(1974.19285728527 -22.5029470248115 -465.620894773387)
(1776.3811421887 -368.898230514772 -25.4691918416637)
(1722.27107487005 307.75445704155 -261.048386700035)
(1331.25560738643 315.563962146925 -66.7788579909481)
(1473.57082908478 -67.5371467395222 -6.20458883512689)
(1524.41836993699 2.0123409405667 -272.571875201139)
(1948.47197326753 -259.0074936924 -421.389551141884)
(1471.07642419718 142.904896649875 136.579854491971)
(1491.96748456356 -242.27634328946 21.1926535193803)
(1638.00873111794 -47.5490994500218 137.756592188364)
(1592.2784731247 245.043577722316 458.490753102368)
(2353.25896798763 -6.69540663595575 -351.41613642662)
(1465.97026690092 -54.2422452641679 91.1726129784211)
(1578.71570664287 -376.543243048115 -943.570458609206)
(1594.9567318866 -63.4467396237857 -337.025668582108)
(1594.42116241914 492.470362552821 -462.459616281116)
(1171.15936351317 174.785752588447 149.49581184075)
(2210.71552195422 -140.885111670951 476.322727173793)
(1913.23321984901 121.329794444237 -278.809752165212)
(1374.13161388848 176.09988000636 381.975462486535)
(1785.10453603496 -184.196687084102 -441.8658064983)
(1890.76744595321 -319.563991811253 -246.707684292999)
(1652.20984952046 353.908476574572 276.861500872689)
(1818.99944831217 -482.808665760054 -238.502370994043)
(1913.48673461963 262.217050088114 82.0625761148096)
(2089.30049207421 622.846625577289 88.0075780462575)
(2240.04749207562 -516.599331383825 -173.172663267579)
(1359.38829339349 -576.917110402889 363.627385623947)
(1779.40793188703 215.59064977527 -156.966576326974)
(1938.47235239977 -197.829424413927 -233.274783386601)
(1437.9305771742 159.175527392969 -256.71405258833)
(1426.45689161424 -635.151075467965 -62.1336273507124)
(1613.98587092746 285.988113663176 276.389025617075)
(1787.19493081444 214.997306835071 -268.306785387336)
(1678.88314819214 -403.270359131006 -67.7135499648942)
(1356.02107244374 669.09682833154 84.4201511493734)
(1607.94569886487 209.928794859366 -558.258898947199)
(1810.11453272888 -279.104539208539 -253.446982126086)
(1769.09249640269 -198.654564273348 66.5598465958545)
(1544.61157704748 -17.8185519916537 159.295718632056)
(1464.22246290154 -473.754704321715 60.742232507323)
(1277.70190826191 210.016797120481 572.966759067275)
(1913.13958388152 469.127944733153 351.172767958189)
(1474.50457998027 346.300670713194 -344.779084727438)
(1532.92420221632 -140.272196973596 -33.1458242852992)
(1831.77690804297 -182.785138137354 135.595405538415)
(1807.93961502533 93.8667393165788 100.430834968602)
(1239.98137275611 -29.9070385024656 1.26459713658983)
(1944.13309967173 -151.232213080356 37.8153446204881)
(2274.4180793461 117.51708105462 -180.239075750645)
(1909.82338610201 166.647739772737 174.776684796501)
(1768.43425584506 -285.98971822222 233.169200022059)
(1487.61219218556 -185.943336552381 208.322030111346)
(2445.52948532101 203.529559409675 -50.1990031299895)
(2000.96475256058 75.952889108718 -460.272867781745)
(2107.60538711928 -95.3089034714573 -161.645403929099)
(1827.46933699286 -785.094484609167 121.758189016628)
(1260.05926067441 -472.1057388501 362.660942539089)
(2519.06737885141 -456.337513915271 63.6799483749781)
(2170.71476205803 -403.45298009619 -21.3787552310665)
(1838.08330612619 -52.5377787753264 103.798517327378)
(1506.35598539523 57.2360324082895 -73.2090228879038)
(1604.41104029794 -225.420947417361 341.599166944571)
(1467.05904822391 -17.1560275342446 -117.836921670012)
(1665.86682678521 166.651328453154 -136.837804330738)
(2015.72858861274 440.886897451415 99.9323609313016)
(1645.43464293543 43.32950500057 24.0950983799307)
(1422.35258282401 196.42796546339 -66.5708177113123)
(1704.39011739935 -54.6577768699384 -473.671036174117)
(1908.44530881056 272.56367155489 -25.3950401917845)
(2055.37412760843 209.533825362971 286.582595798828)
(1923.68185593661 326.625983595056 -57.2704043834163)
(1474.15310906968 50.4987172896173 -540.120853992148)
(2048.19957867214 45.9969652204821 -295.267786777177)
(1606.97797798812 84.9982304470257 183.494474970712)
(1799.01163403909 225.483495590651 -426.697667304415)
(1893.97577438735 85.9082837302189 -251.584695830716)
(1739.54695797534 -173.49853217971 37.5779277451686)
(2071.5006148278 -538.9689863737 -142.74246481022)
(1706.83388104006 288.176728108603 543.719887803979)
(1619.06763163025 230.694022965018 389.246874728484)
(1206.96462047334 -399.558741572778 256.973969335457)
(1804.8679658753 61.3511670040652 -22.1386693971046)
(1776.84945079774 229.521894915176 -93.6228959190627)
(1802.67218072373 -252.171405237294 187.434804775966)
(1577.5183807188 -154.113620322009 352.592230370131)
(1607.60399595404 45.4618744392948 211.09042752337)
(1878.18974224285 -79.6926771847452 -105.533118917816)
(1742.34313582482 -60.4912726008429 -458.105728685492)
(1615.62151342944 200.280374523551 -349.006167307507)
(1398.82356404921 -292.00303920857 -137.594031077593)
(1631.66796103097 -218.379360787305 110.077348222023)
(1700.62411809162 -47.6296500793932 186.324948899951)
(1508.70801440809 -224.863137354403 -323.460826191995)
(2092.54256105453 198.917332022545 -202.386237793414)
(1619.22770127269 46.6414682504734 427.84130991959)
(1525.04516957608 -60.3112489454092 214.792018691667)
(1587.95803961765 -154.603230887923 122.999914346575)
(2157.56134125573 -394.601794750585 -263.522710605748)
(1476.41813307262 82.5979987048776 -148.096008776143)
(1168.87399167639 -718.194644697573 -160.987110464732)
(2042.2368429569 -114.012372320161 114.555262703039)
(1990.37134514398 72.81820974469 74.2517249888852)
(1553.3151036124 166.278014850658 -113.012684120732)
(2011.20946852964 -524.899550981282 -89.7939720470599)
(1710.53006848527 -168.685062351193 438.75154267463)
(1752.25780463046 192.347770938723 -12.6622326776824)
(1646.64963692211 -233.134460379112 -91.6271183087571)
(1688.15275729567 92.0369486018919 -75.8415956722538)
(1681.22430592929 56.3419197428455 107.854238402879)
(1837.01829237408 315.751068304101 -223.805494537857)
(1501.3155060334 182.347783927144 -149.472926067006)
(2376.96804621668 507.031861055629 235.210161131468)
(2011.47742664193 -105.777096981387 -380.869530005907)
(1178.65548331341 38.5311674316863 -446.381360981133)
(1946.23476644115 -528.056146513935 208.142069331744)
(1530.87113494185 372.875356859893 96.1919056079104)
(1873.02171711075 377.190342031768 -112.937026923987)
(1463.63970837927 435.516485921298 232.978475386162)
(2002.66264318744 6.99451317612477 -121.169252171359)
(1737.71148503524 -49.9922767998224 -402.675566892061)
(1890.08689752933 323.782839940905 -163.199327107223)
(1789.66998387179 -111.605445552864 -291.851187544297)
(1791.32382983674 -170.306691813907 233.358715449401)
(2025.49685642498 413.247535087509 164.886074775412)
(1568.44125914559 -71.2785980776071 227.758240004499)
(2020.24027740255 158.46403798888 189.40910078009)
(1852.06190997846 -68.5037785911937 -93.5072064502628)
(1923.18157934356 289.106301403545 701.88930607511)
(2282.49111484903 -259.302656318962 328.653554523001)
(1757.67891381956 404.637536822444 164.979626946153)
(1507.91164739627 126.584905811781 196.053309811583)
(2173.71374258085 89.138572209724 267.684558758824)
(1837.27818877816 -145.601282385471 -360.804295369157)
(1765.11330923648 -383.610593192903 -250.923398899057)
(1978.65376191041 241.902197877725 -289.312920739898)
(1380.41291807646 394.032963226155 248.991042780174)
(2246.8364274131 -209.541546306168 12.3255998339059)
(1614.27183590831 -114.2433633394 -49.2846003389372)
(1765.55636616429 -264.709030955857 176.469611951933)
(1325.95898987431 294.228035701616 555.576223063414)
(1518.82714170454 130.234341273374 -771.528528605497)
(1692.72735071237 -258.86540282677 10.6466789059147)
(1278.00797763521 -38.6623204512002 374.830570542635)
(2044.73206916731 70.3091233425966 320.945571108193)
(1720.24470769026 181.85071032816 287.890442396624)
(1760.26408934256 -65.1972608133043 100.187320097987)
(1114.96987943679 145.907464564301 205.120369625968)
(1874.26508415206 -589.048309222129 -87.206114591635)
(2112.05164603574 -202.122128436678 -87.5704207334765)
(1836.74955281338 62.9509669429886 102.570666251688)
(1943.05977757671 198.395448177962 310.149700505081)
(1481.13570883625 35.2333368675894 256.598137856683)
(1724.86621265581 -404.939398449303 180.601580045555)
(1350.59463133404 145.168566586316 -120.052002854539)
(2238.73819438328 -213.069544950912 -366.253696369697)
(1225.10192660911 431.664565467353 -353.681883910161)
(1356.77274530395 128.486128554018 -328.229004264295)
(1424.19622728986 91.0869212886689 146.432487347251)
(1957.06414591699 -486.567085279207 327.734131343319)
(1398.02863552391 -24.3142748403521 -85.2462564704491)
(1619.58017721202 114.835272868941 396.561618098546)
(1956.70436194105 -77.7529543197709 121.872818459037)
(1626.97453585361 830.053758071819 -187.183893782536)
(1680.30347330571 255.545243705321 124.027244941616)
(1920.11164508288 -190.732459953625 -61.3243681548181)
(2090.74219090976 -129.797252306554 -4.2454582487465)
(1308.39270733829 341.894454335377 -481.270881179444)
(1169.44229624785 -209.913720952062 -328.51512294816)
(1325.37608869475 -58.6728828300121 -31.0067146819583)
(2042.97183193238 -105.215812504906 -254.06170642681)
(1664.25366643876 -334.925751453826 776.780619165774)
(1544.82967782758 701.590120217074 -57.2786126784694)
(1475.96687897523 123.39331115153 -66.2138269748684)
(1884.56199206262 -388.236524390103 -395.963261717853)
(1675.21058660676 257.790678131797 -203.773485789339)
(1583.64605779195 -644.918917595571 -302.130767128109)
(1599.66498479494 -341.685373214469 578.337314934447)
(1339.97701932331 273.17649186599 147.656960698758)
(1373.9823263152 -93.9844583978348 46.7832191143665)
(2174.45648398263 -210.41055495842 -608.369793861288)
(1589.85637404107 28.3044205382767 116.960578705882)
(1836.24188275724 66.2596875241267 -301.741548990936)
(2055.17151297935 128.042487636036 -388.16245434552)
(2068.59084641451 229.173186786301 52.1037482461805)
(1385.44581490923 -236.654668556167 -420.520595663168)
(1408.20760932979 2.22813144601241 100.39186780751)
(1733.49288111091 -591.122459257331 760.947683776326)
(1547.85242832109 53.4836851545876 -159.193220517394)
(1890.2624469358 396.435031293322 533.920821184475)
(1638.21776418631 -761.147488425222 -317.86015813949)
(1915.78311150583 -73.4166030506763 -94.4034511640895)
(1786.5511322713 -338.085520120065 116.791224253912)
(1548.96070976566 -217.390335689117 -294.947836769799)
(1961.27897661013 -110.354794563009 -222.845707509763)
(1613.04101883333 167.556028808114 -218.206053757599)
(1827.947705605 -8.41746324845402 138.782562606416)
(1503.15077259602 -51.8545682624841 145.102603336798)
(1344.84179594128 292.147201733113 -282.227355970542)
(1518.20967998762 -0.849468210770597 336.127359051769)
(1400.1199842296 26.6588305859165 -20.0671844874778)
(1877.9860397597 -586.716549931733 360.208064989283)
(1942.5048398308 -189.163429365225 -55.3243753060581)
(1553.44877632586 9.36261302202419 172.272268290637)
(2011.27813797719 -468.346461040097 16.3419063553219)
(1889.18686138129 -164.539581695266 -134.252550529131)
(1804.08183327337 244.782963080307 -142.715469078452)
(1581.5082559185 108.370073900821 305.039578892754)
(1608.95805885732 -271.608313501442 -178.868431917168)
(1382.16802253704 127.016620003259 -80.804207620546)
(1909.04134836494 -104.243878979566 -47.4765804971938)
(1480.3453685039 382.631001702212 21.5809383323109)
(1148.94437601275 1.59095362703653 -159.784582599181)
(1415.13493634099 0.476978343490768 415.760443929618)
(1946.80842356194 -126.146376299531 156.618722259611)
(1964.19642484036 -153.569262987245 -174.439349035529)
(1627.57705738202 -261.951413798255 -197.410351164758)
(1535.31099940307 -121.951449590296 -805.214170792315)
(2189.92055598532 52.6530749474563 -308.303911952983)
(2286.53821320558 -20.7444438496532 -113.667493654925)
(1716.96206107287 -139.536171074837 -210.277433447233)
(1375.15667794735 261.243567068557 -455.421887053999)
(1899.55385072942 43.612452528725 228.948192150008)
(1654.34974117069 -62.9079972660842 -88.1873211329066)
(1704.65112360677 152.179089588457 364.946259450361)
(1340.3933955572 101.093833773808 -427.629869031262)
(2235.29939739318 -359.465687961132 -323.274386108436)
(1991.04738741545 -331.696785027482 -323.407352996274)
(1499.747177669 -331.133384405325 301.070509550003)
(1326.02525975478 -10.294983712071 -42.2613392641902)
(2162.62136758875 -533.246693011484 -415.844461750277)
(2178.54915523263 204.21984165345 17.264181816316)
(2154.03751671063 -81.457327123295 101.639337152832)
(1941.65664830636 -919.4134695389 -32.4129775583822)
(1568.08860274036 384.008871699664 209.22370834603)
(1905.02789109451 -30.3147720712124 -220.704137309592)
(1645.17227870189 -63.1786364190771 -403.263240896072)
(1415.60956970598 -591.208196715077 198.16167594937)
(1541.56783237197 -189.842042688858 30.65121689048)
(1348.22205885552 -21.9667892535878 84.8542903051995)
(1848.46935469015 -7.52639253962096 -25.0839490825041)
(1537.89360469839 -458.912822014198 116.018555217194)
(1633.64205295333 -81.0587220520063 161.022293902381)
(2445.56417276607 45.9928558423782 -310.420971899655)
(1657.95928559874 -202.266848999961 118.582261211891)
(1833.7591955812 437.643012511516 -38.4454454542029)
(1819.03256838307 -154.735263554362 107.388908191423)
(1961.97150530792 733.98601227394 -491.333574093282)
(1320.77152734886 64.270642996769 502.611452025864)
(1940.85607750286 172.730768774396 -199.800079163958)
(1548.10814439573 36.3778552014616 -36.5958634678579)
(1250.45499445379 -276.549873386045 -167.322347094512)
(1890.23281116429 673.498554368363 128.042669197416)
(2219.56730189872 -115.244426384353 97.6489870229369)
(2118.31848398138 38.6633146944537 -294.888860434051)
(1815.07357327019 -607.665207035546 -23.8970240611177)
(1028.35017319242 59.5737262851669 71.9640027232876)
(1650.22254685946 168.050747836819 -261.904065673144)
(1246.96894713397 -99.1537854620297 -28.1992833340787)
(719.228221672404 14.1902493851399 -49.9801305201341)
(1688.44793582483 230.387461667405 181.59778711319)
(1877.38665262109 150.883053995743 145.163090968857)
(1650.39724751131 466.013661798907 454.881646583008)