/*--------------------------------*- C++ -*----------------------------------*\
| =========                 |                                                 |
| \\      /  F ield         | OpenFOAM: The Open Source CFD Toolbox           |
|  \\    /   O peration     | Version:  2406                                  |
|   \\  /    A nd           | Website:  www.openfoam.com                      |
|    \\/     M anipulation  |                                                 |
\*---------------------------------------------------------------------------*/
FoamFile
{
    version     2.0;
    format      ascii;
    arch        "LSB;label=32;scalar=64";
    class       polyBoundaryMesh;
    location    "constant/polyMesh";
    object      boundary;
}
// * * * * * * * * * * * * * * * * * * * * * * * * * * * * * * * * * * * * * //

3
(
    flow
    {
        type            patch;
        nFaces          160;
        startFace       4700;
    }
    obstacle
    {
        type            wall;
        inGroups        1(wall);
        nFaces          40;
        startFace       4860;
    }
    frontAndBack
    {
        type            empty;
        inGroups        1(empty);
        nFaces          4800;
        startFace       4900;
    }
)

// ************************************************************************* //
