/*--------------------------------*- C++ -*----------------------------------*\
| =========                 |                                                 |
| \\      /  F ield         | OpenFOAM: The Open Source CFD Toolbox           |
|  \\    /   O peration     | Version:  2406                                  |
|   \\  /    A nd           | Website:  www.openfoam.com                      |
|    \\/     M anipulation  |                                                 |
\*---------------------------------------------------------------------------*/
FoamFile
{
    version     2.0;
    format      ascii;
    arch        "LSB;label=32;scalar=64";
    class       Cloud<dsmcParcel>;
    location    "0/lagrangian/dsmc";
    object      coordinates;
}
// * * * * * * * * * * * * * * * * * * * * * * * * * * * * * * * * * * * * * //

4305
(
(0.662247057352072 0.00779900757918221 0.0017669124368061 0.328187022631939) 0 0 1
(0.264593126526561 0.406127446381803 0.10067673474881 0.228602692342826) 0 0 2
(0.261593838340319 0.292344309809794 0.43516477086704 0.010897080982847) 0 1 2
(0.531116038492807 0.0235066931291917 0.406768137032478 0.0386091313455227) 0 1056 2
(0.0933121835061974 0.0178018282535644 0.593341292782703 0.295544695457536) 0 1086 1
(0.146742546368929 0.0145466894016544 0.569476830825686 0.269233933403731) 0 1086 2
(0.143127993997762 0.134366689948338 0.305476732364162 0.417028583689737) 0 1632 1
(0.00530036863009697 0.710395367067947 0.197598792914521 0.0867054713874346) 0 2178 1
(0.582670879048991 0.00999045670736706 0.145796343224885 0.261542321018757) 0 2178 1
(0.0554941766056067 0.667498179126775 0.259239483345625 0.0177681609219938) 0 2178 2
(0.484293174629114 0.129209407661875 0.0736876998312983 0.312809717877713) 1 2 1
(0.0667757344045073 0.320535572890399 0.603075688526719 0.00961300417837476) 1 3 1
(0.0849458613866266 0.387133433507982 0.0475328784892554 0.480387826616136) 1 1057 2
(0.123974755072307 0.310617353262334 0.08805038395899 0.477357507706369) 1 1107 1
(0.367819916301678 0.236485227204232 0.214620041833028 0.181074814661062) 1 1107 1
(0.330648255446432 0.0803215419344908 0.0689709176765995 0.520059284942478) 1 1107 2
(0.0630377867864446 0.170548401048253 0.332220118351948 0.434193693813354) 1 1107 2
(0.489868665335724 0.189733510047563 0.106110296088441 0.214287528528271) 1 1653 1
(0.33024054089787 0.0605365019717522 0.331375696647138 0.27784726048324) 1 1653 1
(0.0460739448593821 0.0138391847663188 0.448395451008716 0.491691419365583) 2 4 2
(0.0971089413027854 0.560891651962376 0.138677558466458 0.203321848268381) 2 5 1
(0.210711208294942 0.197115693618057 0.155487404750481 0.43668569333652) 2 5 2
(0.361131854290959 0.0127485981590466 0.483743212280177 0.142376335269817) 2 1058 1
(0.0371734424681793 0.0468453276347144 0.0819676097679258 0.83401362012918) 2 1058 1
(0.273410808458497 0.234399054680492 0.47302917550981 0.0191609613512014) 2 1127 1
(0.187655815155292 0.548629970617946 0.0531795211331658 0.210534693093597) 2 1673 1
(0.244276363542224 0.307750592300759 0.274175748753028 0.173797295403989) 2 2 1
(0.178947193733428 0.0242504315332751 0.78012236312553 0.0166800116077674) 2 2 1
(0.454680056312237 0.224569762902823 0.141659313892184 0.179090866892756) 2 2 2
(0.567134196986945 0.183021722776976 0.0443133143209583 0.20553076591512) 3 6 1
(0.024351573798273 0.13011523906282 0.440743703724512 0.404789483414394) 3 7 2
(0.266701754737229 0.0219028771957207 0.65177356781592 0.0596218002511301) 3 1059 1
(0.00808763308150973 0.0626097261506332 0.625907144770832 0.303395495997025) 3 1147 1
(0.0548013123619805 0.821920553593665 0.00349579722873126 0.119782336815623) 3 1693 1
(0.0899646815926198 0.0162717999597233 0.798281068576064 0.0954824498715933) 3 1693 2
(0.321711195857792 0.0379058770658969 0.0339649647510044 0.606417962325306) 3 4 1
(0.321419929007608 0.315813251031889 0.0443098452659604 0.318456974694543) 3 4 2
(0.114410624180049 0.419928274318198 0.249514457678511 0.216146643823242) 4 8 1
(0.0235005350182594 0.328604175521936 0.0789846529930781 0.568910636466727) 4 9 2
(0.0212378829246684 0.31673002129171 0.184103945912244 0.477928149871378) 4 1060 1
(0.0749287786294778 0.375571704564522 0.461947377940723 0.0875521388652771) 4 1713 1
(0.252147078006269 0.0557186996471258 0.102060793075685 0.59007342927092) 4 1713 2
(0.0978875973949128 0.432763166644199 0.0681852312991547 0.401164004661733) 4 6 1
(0.193200354124449 0.168917760363093 0.443953905137448 0.19392798037501) 4 6 2
(0.0773819124651073 0.828199166694716 0.0114695574544831 0.0829493633856937) 5 11 1
(0.10039929964747 0.00313274835738375 0.377221769785083 0.519246182210063) 5 1187 2
(0.0708304541351438 0.0962306725058534 0.263168557547718 0.569770315811285) 5 1733 2
(0.644357062700603 0.140732081030601 0.146189679555831 0.0687211767129652) 5 8 2
(0.0435834407158847 0.470723387340904 0.409262575091038 0.0764305968521738) 6 12 1
(0.1506219618864 0.254413768088795 0.113112344306708 0.481851925718098) 6 12 2
(0.0702973839181317 0.17785178375746 0.0429671239342771 0.708883708390131) 6 13 1
(0.0287965207679197 0.543919657663633 0.122694478589253 0.304589342979193) 6 1062 1
(0.211052910527212 0.0296541043247791 0.545485195126644 0.213807790021365) 6 1062 2
(0.211799385674317 0.472150845071483 0.0325450116223733 0.283504757631827) 6 1207 1
(0.0223437683008008 0.590506553514438 0.359496519203877 0.0276531589808843) 6 1207 1
(0.0905192880558063 0.553241381031958 0.248841985322667 0.107397345589569) 6 1207 2
(0.232206122459148 0.157973722444921 0.274385816751572 0.335434338344359) 6 1753 1
(0.0666720404338771 0.4108447527254 0.465614385638057 0.0568688212026668) 6 1753 2
(0.272107147593844 0.336635461098674 0.256361615139853 0.134895776167629) 6 10 2
(0.36102528240958 0.0456287128408526 0.430028316057123 0.163317688692445) 7 14 1
(0.086483971240515 0.0850289679658955 0.616872634319954 0.211614426473636) 7 15 1
(0.265962411744856 0.156450075619984 0.115227151672686 0.462360360962474) 7 1063 1
(0.0613612388732507 0.620697166396823 0.144482139616302 0.173459455113624) 7 1773 2
(0.220100858731624 0.100578281229189 0.30630473208097 0.373016127958217) 7 12 1
(0.154420980245751 0.65405690521404 0.0206039585322652 0.170918156007944) 7 12 2
(0.291878075406821 0.349539821439576 0.108758602964774 0.249823500188829) 8 16 1
(0.319033721345341 0.00983747845080118 0.286019450774729 0.385109349429129) 8 17 2
(0.0572989828795163 0.221073907391528 0.434950458772985 0.286676650955971) 8 1064 1
(0.249766191135524 0.162631893223185 0.105197048349341 0.482404867291951) 8 1064 2
(0.404086913764727 0.397027447635109 0.0558970354128023 0.142988603187362) 8 1247 1
(0.366604804338494 0.0883617420936631 0.426473350452503 0.11856010311534) 8 1247 2
(0.164802158646189 0.0604705943308266 0.0638172734745056 0.710909973548479) 8 1793 2
(0.46019410573616 0.114958077527071 0.0267764457522498 0.39807137098452) 8 14 2
(0.236973297430485 0.212251730685472 0.167705580979617 0.383069390904427) 9 18 1
(0.863597585877123 0.0595428045150695 0.0698969848403499 0.00696262476745781) 9 18 1
(0.086005835743976 0.225558420885779 0.223426357606106 0.465009385764138) 9 18 2
(0.0735635498016239 0.345390535952075 0.183882871982503 0.397163042263799) 9 19 2
(0.123031404057902 0.484328479995078 0.137510567791756 0.255129548155264) 9 1065 1
(0.432497786430467 0.0867162034558089 0.422446049596688 0.0583399605170364) 9 1065 1
(0.48910200218465 0.0368526191439022 0.0310820384024946 0.442963340268954) 9 1065 2
(0.28927986122934 0.117120385268591 0.234972310713532 0.358627442788537) 9 1266 1
(0.0432357379021789 0.639808610741101 0.275745115389485 0.0412105359672352) 9 1812 2
(0.132676449863008 0.1132673072239 0.132530641770461 0.621525601142631) 9 16 1
(0.456744174235272 0.155548241640193 0.0505511862077605 0.337156397916774) 9 16 1
(0.0498723190586176 0.366524850773512 0.394794973724843 0.188807856443028) 10 20 1
(0.474432553173192 0.238200345981195 0.0487182772188688 0.238648823626744) 10 20 2
(0.0117057704468366 0.143426011652584 0.0316964420546948 0.813171775845885) 10 21 1
(0.0689787192458891 0.0325106336682233 0.654392877390441 0.244117769695446) 10 21 2
(0.00407724539016041 0.142342075670718 0.318969479896557 0.534611199042565) 10 21 2
(0.283979752639691 0.235226430821292 0.194070118195332 0.286723698343685) 10 1066 1
(0.0892233774940183 0.646947365918215 0.25247663660576 0.0113526199820066) 10 1285 1
(0.131540701864889 0.471981769790805 0.327014267072641 0.0694632612716654) 10 1285 2
(0.186137449413115 0.0178957174751202 0.0818766573063501 0.714090175805415) 10 18 1
(0.717064085775209 0.044302875002204 0.196482129559271 0.0421509096633162) 10 18 2
(0.205436726433308 0.528938562891892 0.0579796631715192 0.207645047503281) 11 22 1
(0.289368868542909 0.130073957820549 0.523692934656747 0.056864238979796) 11 22 2
(0.0376009607041892 0.456750097664681 0.432915811123395 0.0727331305077354) 11 22 2
(0.350744187946118 0.368879761204787 0.0486807678949583 0.231695282954137) 11 23 1
(0.531030562666347 0.0275590940681307 0.262847080695317 0.178563262570205) 11 23 2
(0.299566673697422 0.371936495147103 0.154524258121924 0.173972573033551) 11 1850 1
(0.251952126040872 0.0273901137903471 0.2255124181393 0.49514534202948) 11 1850 2
(0.350951754107306 0.0275329477406173 0.332047108620402 0.289468189531675) 11 1850 2
(0.23158791081916 0.264958933551814 0.240859463658875 0.262593691970151) 12 24 1
(0.568219916174758 0.156721543476156 0.0863679788475958 0.18869056150149) 12 24 2
(0.600114475669715 0.255743867324297 0.0560708570585592 0.088070799947429) 12 25 1
(0.142693885402081 0.330347008425846 0.405825529895908 0.121133576276166) 12 25 2
(0.0430749346192983 0.660541328610544 0.11851219174989 0.177871545020268) 12 1068 1
(0.00261123000792629 0.233014294504949 0.388537560178089 0.375836915309035) 12 1068 2
(0.107398347218361 0.316070235125041 0.361658881303253 0.214872536353345) 12 1323 1
(0.612836798848679 0.0255196491619823 0.217368206489805 0.144275345499533) 12 1323 2
(0.264741019108674 0.131568104892108 0.477921982419239 0.125768893579978) 12 1869 1
(0.00397044179435746 0.473846158782817 0.491367638127217 0.0308157612956077) 12 1869 1
(0.0613641126336833 0.161709762389956 0.36167042610264 0.41525569887372) 12 1869 2
(0.240495422677066 0.307084060187975 0.229923686526972 0.222496830607987) 12 22 2
(0.0661639988911302 0.0836015171310833 0.30202812243667 0.548206361541116) 13 26 1
(0.497195022883754 0.154108317766593 0.193785172999813 0.15491148634984) 13 26 2
(0.491061928354853 0.025039735022626 0.305414028710464 0.178484307912057) 13 27 1
(0.607491909133612 0.1021029395018 0.189048465478842 0.101356685885746) 13 27 2
(0.321829674041305 0.37676572018856 0.300051668440515 0.00135293732962033) 13 1069 1
(0.208173742048547 0.0052921057011718 0.463273513104347 0.323260639145935) 13 1069 1
(0.0980223960413428 0.465885274748166 0.404907859418819 0.0311844697916727) 13 1069 2
(0.796536811284891 0.0927854380600289 0.0147554301900395 0.0959223204650403) 13 1342 1
(0.18594549255686 0.202513563100548 0.282334780196521 0.32920616414607) 13 1342 1
(0.0119040330410357 0.0338306081478485 0.251160441978105 0.703104916833011) 13 1888 2
(0.543133751087664 0.0690177047626113 0.0128406315003457 0.375007912649379) 13 24 2
(0.112239797487178 0.689755297098003 0.195131591230707 0.00287331418411237) 14 28 1
(0.541145242463183 0.242847047987405 0.00830172876537112 0.207705980784041) 14 28 2
(0.473512490783875 0.0476474578207259 0.346411590101965 0.132428461293434) 14 1070 1
(0.242811291293351 0.471434090439144 0.0420123648653169 0.243742253402188) 14 1361 1
(0.0239371131288514 0.551417967210492 0.0290849872433577 0.395559932417299) 14 26 1
(0.246748355843799 0.0156608808125616 0.624084033397056 0.113506729946583) 14 26 1
(0.145303623592279 0.0918358789832754 0.0230257268500677 0.739834770574378) 14 26 2
(0.433058515387682 0.292762306454134 0.0908696773809997 0.183309500777184) 15 30 2
(0.0622700929163115 0.51897784755954 0.313962586087262 0.104789473436886) 15 28 1
(0.282340034568049 0.0544842846608742 0.337151490747735 0.326024190023342) 15 28 2
(0.0646924675560083 0.192920204754336 0.0086635566049411 0.733723771084714) 16 32 1
(0.0305733461265244 0.431156907963017 0.108776889538315 0.429492856372143) 16 32 2
(0.112768792588281 5.68324632974308e-05 0.836289107621451 0.0508852673269705) 16 33 1
(0.098051917282899 0.52201059743048 0.0261352924895572 0.353802192797064) 16 1072 1
(0.0570454741726991 0.509331449365872 0.316394697516237 0.117228378945193) 16 1072 1
(0.0139383772175223 0.0566679577321028 0.557116079010697 0.372277586039678) 16 1072 2
(0.459348783253527 0.234786194124749 0.0212991663527867 0.284565856268937) 16 1397 1
(0.106239123598208 0.510099028896348 0.0147642931686922 0.368897554336752) 16 1397 1
(0.616871459711558 0.0106171907132395 0.00441041350282802 0.368100936072375) 16 1397 2
(0.14789801610099 0.0897292481024623 0.421999673181567 0.340373062614982) 16 1943 1
(0.360498831249257 0.0434094710921248 0.368752063421583 0.227339634237035) 16 1943 2
(0.256834629760569 0.293017963268833 0.330072837215524 0.120074569755074) 16 30 1
(0.19301959575598 0.406820676853498 0.00304298785159086 0.397116739538931) 17 34 1
(0.205356018216447 0.279939487179921 0.34364536224565 0.171059132357982) 17 35 1
(0.225102477204059 0.322083698384628 0.329211154166839 0.123602670244474) 17 35 1
(0.400847965228858 0.000363901440137079 0.0762739214106502 0.522514211920355) 17 1073 2
(0.139751453631922 0.40857789001201 0.415454395077345 0.0362162612787231) 17 1415 2
(0.127024568329869 0.232062446838317 0.251782863376649 0.389130121455165) 17 1961 1
(0.522981848322985 0.150425633999861 0.292946134191893 0.0336463834852617) 17 1961 1
(0.339877453882952 0.350095151200786 0.0936796716633916 0.21634772325287) 17 1961 2
(0.0276546327829041 0.440364005920728 0.416158753618856 0.115822607677511) 18 36 1
(0.0257607089702651 0.118812808258132 0.380516798146562 0.474909684625041) 18 36 2
(0.579395578163286 0.258553292999694 0.148135722505997 0.0139154063310233) 18 36 2
(0.355792888353222 0.0691927652932375 0.532939129699571 0.0420752166539693) 18 37 2
(0.062479232138378 0.0270701704505476 0.33640934509673 0.574041252314345) 18 1074 1
(0.206801772381509 0.0395051404331098 0.617055264844404 0.136637822340977) 18 1074 2
(0.552353998274733 0.146625587400808 0.248324359169697 0.0526960551547622) 18 1433 2
(0.313576127029166 0.200974528267407 0.418883804549158 0.0665655401542683) 18 1979 1
(0.381955894836907 0.539696764653639 0.0492187655919199 0.0291285749175346) 18 34 1
(0.186397566060454 0.408406220412629 0.225126780561643 0.180069432965274) 18 34 1
(0.350326871147684 0.45431238385122 0.0251040822507665 0.170256662750329) 18 34 2
(0.172537540850278 0.0276189216871719 0.311466279075146 0.488377258387404) 19 38 1
(0.55562721904286 0.0250922269680116 0.199295301366135 0.219985252622993) 19 39 1
(0.679178893382011 0.0510023682981389 0.168536051923583 0.101282686396268) 19 1075 1
(0.0346859048276763 0.501490427383495 0.396068010842794 0.0677556569460346) 19 36 1
(0.472681311921601 0.0597102809230896 0.246745824337543 0.220862582817767) 19 36 2
(0.1190899534364 0.122711222397874 0.499308544263456 0.25889027990227) 20 40 1
(0.0534850661883679 0.419657407905687 0.412760651155479 0.114096874750465) 20 41 1
(0.158111711044559 0.551226749220391 0.0508638073882647 0.239797732346785) 20 41 2
(0.22592437575277 0.381749423270532 0.00892805232408725 0.383398148652611) 20 1076 2
(0.137981523251667 0.457206790015097 0.0660706680629026 0.338741018670333) 20 1468 1
(0.0370845496853144 0.159272920383312 0.224204336072444 0.579438193858929) 20 1468 2
(0.0201793948750343 0.165094465025223 0.0543593573285619 0.760366782771181) 20 2014 1
(0.30332090590264 0.192854451349832 0.256040846391836 0.247783796355691) 20 2014 2
(0.213028168430621 0.121378915413939 0.290457194689111 0.375135721466329) 20 38 1
(0.161269319411579 0.322794861604189 0.241469718890211 0.274466100094021) 20 38 1
(0.0304300233412545 0.372870382684324 0.30472274112796 0.291976852846461) 20 38 2
(0.141685254430783 0.173674468407192 0.421452801655626 0.2631874755064) 21 42 1
(0.00145800257034445 0.13769671391783 0.800257793425086 0.0605874900867402) 21 42 1
(0.152971624039098 0.0638050677850626 0.441145268048371 0.342078040127468) 21 42 2
(0.103022539705575 0.114507442675062 0.187253363356126 0.595216654263236) 21 42 2
(0.345878558898424 0.357403567985905 0.0868953099214121 0.209822563194259) 21 43 1
(0.497399582611885 0.105620838105621 0.228072428898588 0.168907150383905) 21 1077 1
(0.358288207568384 0.0820828240742907 0.371996951742963 0.187632016614362) 21 1077 2
(0.0652628284822093 0.0177060092841231 0.715689944864976 0.201341217368691) 21 1485 1
(0.0668484031537527 0.221425382296892 0.236396191272134 0.475330023277222) 21 2031 2
(0.30790186343646 0.0350137136699706 0.19666877556333 0.460415647330239) 21 40 1
(0.611954360551197 0.226872504476612 0.10253036387787 0.0586427710943212) 21 40 2
(0.389291990151011 0.212873708767179 0.067432460990838 0.330401840090972) 21 40 2
(0.0573641500099916 0.547671093702291 0.294361907877562 0.100602848410156) 22 44 2
(0.265492590567711 0.0190270369751315 0.597155021795033 0.118325350662124) 22 45 1
(0.337851665264362 0.522070203588047 0.0631363718906563 0.0769417592569353) 22 45 1
(0.0737840481735206 0.159304939311058 0.449151111095224 0.317759901420197) 22 1078 1
(0.260210711051181 0.547185030853448 0.140572755664458 0.0520315024309126) 22 1078 2
(0.363548555469263 0.189004837386881 0.337258232869847 0.110188374274008) 22 1502 1
(0.381111539870042 0.216104619611807 0.288250645763714 0.114533194754437) 22 1502 2
(0.142457111956636 0.421394497921952 0.342690400830783 0.0934579892906285) 22 2048 1
(0.17063620793407 0.587868308206575 0.181837528133519 0.0596579557258363) 22 2048 2
(0.00776729923902553 0.401211690138724 0.429707099409539 0.161313911212712) 22 42 1
(0.451508798273494 0.174636559317331 0.159803604769394 0.214051037639781) 23 46 1
(0.164892113355335 0.188906400731059 0.0535884778383372 0.592613008075269) 23 47 1
(0.0894254024524561 0.892630236894694 0.0146615355191543 0.00328282513369593) 23 1519 1
(0.240477402875305 0.226705064262641 0.464937236134745 0.0678802967273082) 23 2065 1
(0.0547185141267787 0.287670289721738 0.47586064759437 0.181750548557113) 23 44 2
(0.190537354050859 0.341863941245682 0.296508749510178 0.171089955193281) 24 48 1
(0.178354151566368 0.142258144543762 0.624672317624943 0.0547153862649269) 24 49 2
(0.591243497382524 0.0417994703220351 0.212836128330901 0.15412090396454) 24 1080 2
(0.667563808871962 0.0406651905525729 0.28932400229207 0.00244699828339526) 24 1536 1
(0.0064708084243954 0.0784965923112862 0.270824785756663 0.644207813507655) 24 1536 2
(0.369977896996282 0.390229215189604 0.0357939338653148 0.203998953948798) 24 1536 2
(0.105981531780786 0.0475520099707526 0.717064707292494 0.129401750955968) 24 2082 1
(0.436218109124914 0.393569195594705 0.0891259618759688 0.0810867334044122) 24 2082 2
(0.437099199511798 0.0157991422232794 0.360715194057193 0.186386464207729) 24 46 1
(0.196837690986326 0.393872125298774 0.192309535168027 0.216980648546873) 24 46 2
(0.683987089756314 0.00543914492716145 0.106696196532108 0.203877568784416) 25 1081 1
(0.592694345560299 0.0734093718426789 0.135388479734467 0.198507802862554) 25 1081 2
(0.234700651632165 0.107018831726556 0.348891638992061 0.309388877649218) 25 2099 1
(0.34908224281047 0.326011220935832 0.301531925681848 0.0233746105718496) 25 2099 2
(0.320713459452248 0.601678812822371 0.00761638441615441 0.0699913433092269) 25 2099 2
(0.265247947292267 0.237338028754309 0.495956588245815 0.00145743570760946) 25 48 1
(0.81113458890708 0.0782450055466212 0.00434135143280946 0.10627905411349) 25 48 2
(0.0188370803972043 0.239222276988754 0.146285452617255 0.595655189996787) 26 53 1
(0.218298256286134 0.28907783782177 0.199591361123774 0.293032544768322) 26 50 1
(0.189252249573636 0.0942656271664946 0.0142255133329353 0.702256609926935) 27 1083 1
(0.505401621054274 0.0436047294538169 0.371742198052035 0.0792514514398745) 27 1083 2
(0.608729976345122 0.118439650238473 0.156917883494943 0.115912489921462) 27 1585 1
(0.168416790450312 0.106379904001991 0.566633143612102 0.158570161935594) 27 2131 1
(0.0120069571937214 0.394408935711344 0.0166105913127052 0.576973515782229) 27 52 1
(0.154586174983178 0.189973896631444 0.354877387433846 0.300562540951532) 28 56 2
(0.0920991939692872 0.258761273211699 0.340215560652204 0.308923972166809) 28 57 2
(0.539003203147797 0.316203812105891 0.0108808349465188 0.133912149799793) 28 1084 1
(0.286376575998974 0.356300325461631 0.203776670921777 0.153546427617618) 28 1601 1
(0.140035659070696 0.352730873853597 0.435372880072414 0.0718605870032925) 28 2147 1
(0.138513799091389 0.189476983120399 0.444058214654386 0.227951003133826) 28 54 1
(0.269661268281053 0.0823432915894987 0.553721194076024 0.0942742460534237) 28 54 2
(0.0291146588127896 0.307209270018982 0.478318696952291 0.185357374215937) 29 58 2
(0.0276377975026386 0.0597065701955199 0.427920547445079 0.484735084856763) 29 1041 1
(0.272924445934618 0.113939700597712 0.3531467804673 0.25998907300037) 29 1085 1
(0.444726283348524 0.114113990335374 0.0391137432641573 0.402045983051945) 29 2163 1
(0.357521427495629 0.371291830240144 0.130416844824288 0.140769897439938) 30 59 1
(0.304632061058409 0.15621118178813 0.412677075027723 0.126479682125737) 30 59 2
(0.43107265113064 0.0069151112708092 0.454605744676026 0.107406492922525) 30 60 2
(0.106329794567092 0.21472715766632 0.037927137867751 0.641015909898838) 30 1087 1
(0.512060121679286 0.0285823370640156 0.377372912083512 0.0819846291731861) 30 1633 1
(0.118371239466236 0.355172158009017 0.125636076661096 0.400820525863651) 30 1633 2
(0.0365264225746399 0.264430910210062 0.530457146895744 0.168585520319554) 30 2179 1
(0.711981305706301 0.0134192787298203 0.177844345283775 0.0967550702801034) 30 1 2
(0.00704388094226382 0.00775431683581713 0.574451801035048 0.410750001186871) 31 61 1
(0.60865106539355 0.135499813289454 0.177403299247957 0.0784458220690396) 31 62 1
(0.294601366057654 0.189582098957409 0.120632476439925 0.395184058545012) 31 1108 1
(0.388609703534187 0.14144473318652 0.188744697799507 0.281200865479786) 31 1108 1
(0.262584565118112 0.297564300710407 0.407037119371278 0.0328140148002026) 31 1108 2
(0.32373229076816 0.247126064192948 0.0956476653997755 0.333493979639116) 31 1654 2
(0.199693176055088 0.109890410010055 0.140187200941671 0.550229212993186) 31 3 1
(0.154862577052228 0.080359571846743 0.641955019990547 0.122822831110482) 31 3 2
(0.0838821201233534 0.0472998498747658 0.786190122538738 0.0826279074631428) 31 59 1
(0.264027381040797 0.0335589229003877 0.119011836960685 0.58340185909813) 32 63 2
(0.075030519613671 0.305932153343274 0.524234444272771 0.094802882770284) 32 1674 1
(0.404683594887103 0.0312082239539648 0.144684661572936 0.419423519585996) 32 1674 1
(0.721304426246587 0.19482610341866 0.0823635554481139 0.00150591488663959) 32 1674 2
(0.511468102284283 0.0762356778427931 0.376004816928233 0.0362914029446905) 32 5 2
(0.0231691813232209 0.139801573235126 0.830556540545983 0.00647270489567076) 32 61 2
(0.137007705839862 0.348681038929753 0.335162439711954 0.179148815518431) 33 65 1
(0.236880745004845 0.228777129273215 0.217142304975165 0.317199820746775) 33 65 2
(0.27237154475033 0.330067581811554 0.169862293769179 0.227698579668938) 33 66 1
(0.223662613620895 0.57215363376412 0.0282744199473332 0.175909332667652) 33 66 2
(0.869083484128372 0.0146204220076645 0.101265156483758 0.0150309373802055) 33 1148 1
(0.39271845763583 0.213886686835227 0.311552453884823 0.0818424016441199) 33 1148 1
(0.544034481249479 0.102065973435078 0.305196694197327 0.0487028511181161) 33 1694 1
(0.155117656332636 0.753094574795379 0.0752321369921382 0.0165556318798467) 33 1694 2
(0.321237077584046 0.344542453259879 0.306728699685768 0.0274917694703064) 33 7 1
(0.000891941751359871 0.191514508835025 0.454930640342813 0.352662909070802) 33 7 2
(0.232793237546866 0.354139682081282 0.316029748443647 0.0970373319282053) 33 63 1
(0.100405552579108 0.552770158160822 0.227834524007092 0.118989765252978) 33 63 2
(0.338425817264327 0.00299991978970542 0.126905096428689 0.531669166517279) 34 67 2
(0.302344863508688 0.591231602437697 0.104076516384184 0.00234701766943028) 34 68 2
(0.17888491874706 0.161127165314178 0.179967350718005 0.480020565220757) 34 1168 1
(0.0269542995850164 0.0986123549537343 0.610676520785151 0.263756824676099) 34 1714 1
(0.540436439968834 0.222832083450915 0.216369264609005 0.020362211971246) 34 9 1
(0.757979106212864 0.0429258557061024 0.0856340622214274 0.113460975859606) 34 9 2
(0.193121506137406 0.0783995811564072 0.584758712330459 0.143720200375727) 34 65 1
(0.395427804874534 0.0226183374408561 0.221112484523675 0.360841373160935) 35 69 1
(0.162790032628641 0.055077252755991 0.108984189273961 0.673148525341407) 35 70 1
(0.193588159883253 0.0578845342571163 0.442247397055047 0.306279908804583) 35 70 1
(0.0155152034378182 0.0687603706839478 0.517529036337505 0.398195389540729) 35 1734 1
(0.046031233511554 0.188379448375263 0.255013332341124 0.510575985772059) 35 11 1
(0.245692020048354 0.0865135974630328 0.156914203809256 0.510880178679357) 35 11 2
(0.231914143471916 0.115912179590241 0.547084797028159 0.105088879909684) 35 67 2
(0.618224983388436 0.0263905847134266 0.0756355633560004 0.279748868542137) 36 71 2
(0.582981015242447 0.0870904792565278 0.305622039419094 0.0243064660819306) 36 72 1
(0.150752131979989 0.140416560209002 0.540102692142648 0.168728615668361) 36 1208 2
(0.0967773847717097 0.256028684556444 0.0739452832521698 0.573248647419677) 36 1208 2
(0.0658554692973312 0.506705005641718 0.311710583306796 0.115728941754154) 36 1754 1
(0.170716200604506 0.118013438188475 0.145914048905923 0.565356312301096) 36 69 2
(0.439539616528394 0.0700529394402121 0.452368157469509 0.0380392865618855) 37 73 1
(0.128403368067178 0.34210298437865 0.0731480807454818 0.45634556680869) 37 74 1
(0.151262915703822 0.444779785223943 0.0163596590290966 0.387597640043139) 37 1228 2
(0.129257300701142 0.154941512842243 0.563046599152048 0.152754587304567) 37 1774 2
(0.0192787280924203 0.195853644026796 0.245798355794665 0.539069272086118) 37 15 2
(0.164825774746137 0.198164767593065 0.157548825721424 0.479460631939374) 37 71 1
(0.437077594231472 0.218145081850899 0.283179751966525 0.061597571951104) 38 76 2
(0.263253539420378 0.327678061435789 0.0478673404758469 0.361201058667986) 38 1248 1
(0.337158445154796 0.0107399922247339 0.641061821889673 0.0110397407307973) 38 1248 2
(0.73641326403209 0.0216646151619962 0.108227824240433 0.133694296565481) 38 17 1
(0.127807510244354 0.0482224685071872 0.566713965765043 0.257256055483416) 38 17 2
(0.323688382808371 0.21525571876768 0.358784414809879 0.10227148361407) 38 73 1
(0.317197359309272 0.278442389533287 0.343703737629868 0.0606565135275726) 39 77 1
(0.0984326498065012 0.320185784621305 0.0385361081770953 0.542845457395099) 39 78 1
(0.303881192674567 0.343144895969364 0.21145706507673 0.141516846279339) 39 78 2
(0.175361982227592 0.29615912717342 0.362403238758403 0.166075651840585) 39 1267 1
(0.33986009380502 0.325343899691217 0.161445868935129 0.173350137568634) 39 1813 2
(0.165186949453449 0.00444176131506405 0.520572334169949 0.309798955061537) 39 19 2
(0.709399591393588 0.0661060950407264 0.0480978248049803 0.176396488760705) 39 75 2
(0.176762037468578 0.228821809098419 0.236296661293557 0.358119492139447) 40 79 1
(0.357316610422588 0.418447914582262 0.0574048929269808 0.166830582068169) 40 1286 1
(0.521606846767767 0.127701594193924 0.223295911691697 0.127395647346613) 40 1286 1
(0.488486519044066 0.223013852796306 0.174371079969591 0.114128548190037) 40 1286 2
(0.137661334422964 0.0396233400066473 0.606549483841199 0.216165841729189) 40 21 1
(0.50977889303759 0.253362280821363 0.0326300370017487 0.204228789139299) 40 21 2
(0.549936123945015 0.380906757801123 0.0450526457622143 0.0241044724916483) 40 77 1
(0.567962778102113 0.0111992018187652 0.0369389028353619 0.38389911724376) 41 82 2
(0.195249419910936 0.0207622994843306 0.737493076284403 0.0464952043203308) 41 1305 1
(0.0590346859878479 0.450598433574876 0.36829894074738 0.122067939689896) 41 1305 2
(0.0410169950591511 0.0189076841904821 0.273511391489266 0.666563929261101) 41 1851 2
(0.107462357863463 0.335376541140434 0.371005243608 0.186155857388103) 41 23 1
(0.872467346383622 0.0923924062379795 0.0129796004343757 0.0221606469440228) 41 79 1
(0.556433372777053 0.158008244527608 0.143134151733069 0.14242423096227) 41 79 2
(0.00079928379389882 0.414849600174604 0.344966590127895 0.239384525903602) 41 79 2
(0.234961637618548 0.333542261439861 0.234459475917776 0.197036625023815) 42 83 1
(0.408913955519007 0.031538993819418 0.558510375006323 0.0010366756552512) 42 84 2
(0.0545445868202182 0.0678834710065807 0.147828549524626 0.729743392648575) 42 84 2
(0.505082859307528 0.105648647990826 0.273674291806892 0.115594200894754) 42 1324 1
(0.030440389577354 0.0120126581585201 0.184078989453734 0.773467962810392) 42 1324 2
(0.0442566442477041 0.658081764464096 0.0226169831529561 0.275044608135243) 42 1324 2
(0.232316661600225 0.26276905406392 0.121004408519799 0.383909875816056) 42 1870 1
(0.0630228542423454 0.0641504640978123 0.291216330371246 0.581610351288597) 42 1870 2
(0.215340572349105 0.174498615718512 0.397204065145326 0.212956746787056) 42 1870 2
(0.0601557409989217 0.0835001509852339 0.123149231291104 0.73319487672474) 42 25 1
(0.417190470221609 0.0153348948024869 0.40722051957033 0.160254115405575) 42 81 2
(0.0982796045471306 0.269712019027225 0.261675968968036 0.370332407457608) 43 85 1
(0.465796941796319 0.198070396576449 0.0310261647887046 0.305106496838528) 43 85 2
(0.232626153298292 0.455109486272743 0.0208668378410951 0.29139752258787) 43 1343 1
(0.128333918668263 0.139757084836184 0.69631138530853 0.035597611187023) 43 1889 1
(0.692701240379752 0.0155726379979539 0.261183915171868 0.0305422064504262) 43 1889 1