/*--------------------------------*- C++ -*----------------------------------*\
| =========                 |                                                 |
| \\      /  F ield         | OpenFOAM: The Open Source CFD Toolbox           |
|  \\    /   O peration     | Version:  2406                                  |
|   \\  /    A nd           | Website:  www.openfoam.com                      |
|    \\/     M anipulation  |                                                 |
\*---------------------------------------------------------------------------*/
FoamFile
{
    version     2.0;
    format      ascii;
    arch        "LSB;label=32;scalar=64";
    class       scalarField;
    location    "0/lagrangian/dsmc";
    object      Ei;
}
// * * * * * * * * * * * * * * * * * * * * * * * * * * * * * * * * * * * * * //


4305
(
6.44655350957972e-21
2.86319303935138e-21
1.44982102656691e-21
4.13580480768936e-21
1.44702119302569e-21
2.2350776701417e-20
4.32534669861559e-21
1.21243583075569e-21
5.87943564309439e-21
1.22299579178554e-21
2.41286804265365e-21
2.57809880443353e-21
1.30870542686012e-21
5.49431687012899e-21
1.82071276802614e-21
8.72046721684014e-21
1.75548094336761e-20
6.38043547307101e-22
6.33906419887754e-21
3.45024693488121e-21
3.48056343059045e-23
2.79155046225355e-21
1.26754143527271e-22
5.64442932971768e-22
2.3687495750836e-22
6.26771087641399e-21
6.01745306115136e-21
3.40269927535343e-21
8.82193644646225e-21
1.61026894360421e-21
1.01329255973363e-20
9.6662506950289e-21
4.24577939552729e-22
8.06845782306256e-22
3.44188003921409e-21
4.47217815812979e-21
3.11865480262791e-21
1.86708704911859e-21
3.06306129199152e-22
3.62478042633077e-21
1.01852725131639e-21
9.57452645095215e-21
4.04049867794845e-21
5.35778363860328e-21
3.62124405931862e-22
2.62293715954332e-21
5.92564137778023e-21
1.21797464695549e-20
1.2209552199098e-20
7.35713259445208e-21
8.03530368747606e-22
1.05133748890218e-21
3.16838703165211e-21
2.96566305297876e-21
1.33535094175414e-21
5.74703193875395e-22
1.6115210254543e-21
3.72360519784381e-21
9.27176506875064e-21
3.39945251646363e-23
4.76600421052714e-21
6.66045826303878e-21
1.86015246224911e-21
3.8066858407067e-21
1.77181889647695e-21
1.23600754120706e-20
2.58998667332254e-21
3.63639372460708e-21
5.16061295944311e-21
1.19911920597332e-21
1.92769173408015e-21
1.97632794193474e-21
1.10660262149054e-21
1.08477937619196e-20
9.53478737606443e-22
6.00451648512754e-21
4.40621549028191e-21
1.09992804453671e-20
1.42049823187408e-21
1.23493160195796e-21
1.55122950594723e-20
5.25208561166193e-21
3.40493802080836e-21
6.2289515984352e-21
1.23682816909569e-20
5.37086717177169e-22
6.78287281199575e-21
3.9382251651245e-21
2.55026655617272e-21
6.82784905610174e-21
9.62786212886693e-21
4.97111452014423e-21
9.18089452641209e-21
2.549910148508e-21
1.09977449925388e-21
4.65134788741921e-24
1.52967496822703e-20
6.37987950021116e-22
6.45835565252282e-22
5.98067251055183e-21
3.45094445229771e-21
1.30361125459801e-21
4.29696172701374e-21
8.06821612299859e-21
1.10759310440716e-20
1.41440233828717e-20
1.14133462686455e-20
5.90652956059898e-22
2.51581327643953e-21
2.37268425707972e-21
3.66805684729627e-22
9.85234679984865e-21
5.79574598195361e-21
5.87252961379791e-22
1.81237308164123e-22
3.09051957803353e-21
6.533886310656e-21
4.15841432413611e-22
1.41693854932298e-21
7.01591236436066e-21
4.20671951969646e-21
5.17356536791786e-21
6.51572373339326e-21
4.32372969307483e-21
1.76058829799164e-21
3.54225680781738e-21
2.42305598924463e-21
4.7022117282306e-21
8.39816119371821e-21
3.24313106708607e-21
9.33750696613304e-21
7.76931818504358e-22
1.38245149609103e-20
8.47601105548784e-21
6.02140696290078e-21
1.4064601138128e-20
1.07231407695812e-20
4.15836346626256e-21
8.51098311299649e-22
5.34479064140444e-21
8.07454043610695e-21
4.24476273280775e-21
6.47131168139892e-21
9.63223549853546e-21
2.85939728257019e-22
9.74239095543058e-21
5.15969300080695e-22
1.48868857177731e-22
2.98442517146754e-21
4.45826960000241e-21
9.86338734166351e-21
1.13831748283608e-21
2.41962884333467e-21
1.7102534222707e-21
4.14599529648408e-21
3.68291401376337e-22
7.52269567111081e-21
2.19984102575488e-21
6.46934684795958e-21
2.04666864825866e-21
5.94080467984354e-21
2.93089788578789e-21
3.85508917545516e-21
4.07774873733255e-21
5.48487919120391e-21
7.43738569999845e-21
1.9961877662636e-22
3.63274218711496e-21
1.49617120839813e-21
2.28873567834844e-21
1.71074188157618e-21
1.00750844259641e-21
2.18619967577912e-21
1.61800039009071e-21
1.48216577609783e-21
6.63002361741208e-21
6.49288345546826e-22
9.96647834265251e-21
2.10469053422588e-23
2.16829077556376e-21
1.10265428034974e-20
1.47346375717934e-21
6.44090525999196e-21
2.11880797433336e-22
1.93017353509544e-21
5.95519131733332e-21
3.33034986467993e-21
4.30675551526606e-22
1.08623276396262e-20
5.36405717217512e-22
1.2259560394302e-20
3.16065566207299e-21
8.22573804120234e-22
2.15831504316728e-22
4.51638511858851e-21
1.09147348836403e-20
1.5808916175692e-21
4.77043012191432e-21
6.30223977861071e-21
8.72432565420853e-22
2.75664302168653e-21
9.73819790087462e-22
5.36563177767406e-21
1.22048046406927e-22
5.97804870679136e-22
2.76407826504718e-23
1.34124479062971e-20
5.74442463885513e-22
7.55152619507828e-21
2.04429344233445e-21
9.10625008988507e-21
1.30560501495826e-21
9.61318304512807e-22
2.61843768126933e-22
5.17534215335753e-21
6.398000826151e-21
2.92820909569599e-22
5.35473215080131e-21
1.89984317650002e-21
1.85732580589736e-21
5.35151269829937e-22
3.83362300843517e-21
2.08273927501536e-21
6.06124369597338e-21
9.44461126772057e-22
2.74043666644479e-21
7.27889776968954e-21
3.55357840008605e-21
2.98966577548865e-21
2.74295458692619e-21
5.73282165890937e-21
4.25580959728622e-21
3.1064217393166e-21
9.2879091010398e-21
3.60218756417473e-21
4.61164759295206e-22
1.76073686517349e-21
6.32487952511702e-21
3.90007503515215e-21
4.52751471460108e-22
3.30006631377785e-21
1.46920325648163e-21
8.79368418253052e-22
1.23198552027514e-21
2.88546982136664e-21
4.29631671401264e-21
8.84984125354018e-22
2.48524446956557e-21
5.99231561573231e-21
8.49985567615461e-22
6.69296984289535e-21
2.91924595823743e-21
1.59453460888366e-22
6.18820144362665e-22
1.84881812609655e-21
1.3042990776515e-22
1.34322428163179e-21
5.69338547435671e-21
2.11855056839747e-22
4.79006150162475e-21
1.00489297444313e-20
6.71483931426922e-22
2.37912980635372e-21
2.18146058946695e-21
9.70504606511694e-21
1.98559766276364e-21
1.64861485927451e-21
2.47742708082329e-21
4.59636287873741e-22
3.49096546989073e-21
3.0679486031857e-21
1.74098973704542e-21
3.33921118428832e-21
7.61602815742602e-21
1.44881565789677e-21
3.91881652110716e-21
3.75004345695157e-21
3.14066746336528e-22
2.55724630870259e-21
8.56499595029258e-22
1.658173271509e-20
7.60865520457848e-23
4.70228388300181e-21
1.127251862695e-21
1.30391474801516e-22
7.04772891539852e-22
5.50687607429444e-22
5.63619461078822e-21
7.01529456972518e-21
5.83408422369852e-22
1.83904730423451e-21
4.17098368191402e-21
9.09022524492729e-22
3.39123544752893e-21
1.04509681887585e-20
1.71374113457794e-20
9.15339448550543e-22
1.14544717661093e-20
2.32583796787608e-21
2.84395898982928e-21
2.34232264264023e-21
4.47619137324976e-21
2.87984390967827e-21
3.9152982242069e-21
3.43105446524304e-21
1.74317651385956e-20
5.73445567773369e-22
1.87394613044635e-20
3.6574527348029e-21
1.76926950454946e-21
1.02178180515752e-20
1.45459575744654e-21
1.42256002831418e-21
4.50132279804191e-21
1.07521958964266e-21
5.25367123012268e-21
3.86537206186106e-21
1.63612138554563e-21
9.4359460587054e-22
3.66291429399109e-21
1.14713139528109e-20
4.3749749864811e-21
6.6672535895215e-21
5.55102776032796e-21
8.58255656787844e-22
3.22770112994832e-22
5.09622454304479e-22
2.61780847031838e-21
3.83082534720637e-21
5.09045379266126e-21
4.0651670301345e-21
6.3576196168872e-21
4.1718724315568e-21
1.12287953043975e-20
1.26319496102085e-21
2.83709668541001e-21
1.37256108305427e-20
1.17564712142096e-20
8.34411753268144e-21
8.00103549989578e-21
3.20705805882387e-23
1.42285506674626e-20
2.9889604312919e-21
9.77391799282169e-22
6.97722731490457e-21
7.54308419308222e-21
5.55608230361598e-21
2.3452737872304e-21
2.47488100862708e-21
4.04877877119565e-21
1.2435208562194e-21
5.77455131052203e-21
1.72433756217087e-20
1.12487456236018e-21
2.94281903719514e-21
4.5497090321748e-22
1.010397664033e-20
9.75871107096473e-21
6.61080879594802e-21
1.20446504622978e-20
7.34995094517494e-21
8.4447185736035e-22
1.28690181842984e-20
3.33866915551743e-21
8.89247925473046e-22
1.0479618156278e-20
9.24806627835192e-21
3.80013282290134e-21
2.44744860693977e-21
3.16241937651118e-20
5.16908132238508e-22
1.69396791386182e-21
6.08894369862931e-22
1.03124819307733e-21
9.57283303726627e-21
4.16990417166871e-21
3.64535950269825e-22
4.1487393339416e-23
4.84127292853747e-21
4.01986843533914e-22
1.66361657781224e-20
3.66539125942216e-21
5.30930063193421e-23
1.202857469357e-21
1.59333450316971e-21
2.67014443782248e-22
3.28298756662909e-22
3.51505996550103e-21
8.97763552029249e-24
5.0338384463193e-21
2.49257783474511e-21
3.93128443156795e-21
1.19504272286241e-21
1.67846611572253e-22
3.34963267281482e-21
5.56949487496419e-21
2.02956015893844e-21
1.2470027873286e-20
1.70989572372181e-21
4.21542285283021e-21
6.93368812144465e-21
1.68768586127528e-21
4.39994298262731e-21
4.27103786163673e-21
4.14524471935487e-21
9.31350368519113e-22
3.37618924703238e-21
4.746030791796e-21
8.25759382100732e-21
1.51189005855591e-21
6.11399052125052e-23
5.96179046228453e-22
2.12759860913542e-21
4.48066505081707e-21
1.19588098995207e-21
6.58213182295586e-21
1.59666209452583e-21
2.65080392118367e-21
1.81722748722602e-21
1.59135910911914e-21
4.88772716896284e-21
2.17949969600597e-21
3.00365319992214e-21
4.85174298226508e-21
2.15019772647402e-21
1.11102183679673e-20
9.68150972875258e-22
3.71790253577118e-22
1.09208619248431e-20
7.58914402546551e-21
1.09289772806387e-21
8.33381628250584e-22
9.41221748925811e-21
6.24205522815085e-21
4.79855543371456e-22
1.77332111042938e-20
1.20399127460992e-20
1.14269988088148e-20
2.22589053930029e-21
1.67035927450977e-21
7.93922275425191e-21
4.21259671261024e-21
4.12798185548341e-22
5.4141061330018e-21
6.36051577171914e-23
1.52024400107926e-21
7.50145455034735e-22
1.42531074056497e-21
7.57531792652555e-22
5.39928383645453e-22
8.42627731175637e-22
1.90891526871983e-21
1.17681793762334e-22
9.56265465357147e-22
2.68557372615925e-21
1.55818395347364e-21
6.45553009952876e-22
5.29020346227078e-22
3.08147562687113e-22
3.84336326731339e-21
3.81606424458071e-21
2.76414165879115e-22
2.72590982643856e-23
1.29199916668656e-20
8.53849853291558e-22
1.16932383744292e-20
2.87699859456696e-21
4.0482335509984e-21
4.09857571584127e-21
1.64022596730225e-21
8.32995466181389e-21
1.77680647662121e-20
1.38567052023193e-21
6.91467339745971e-21
7.106748705632e-22
1.75602702755864e-20
3.30630972200079e-23
1.09045993648159e-21
5.32198588225724e-21
2.86889097075564e-22
5.52396072472708e-21
5.01621882056017e-21
3.52783845243093e-21
6.94711517931628e-21
3.9514322836753e-21
4.00173826272706e-21
4.70808516169241e-22
5.04994053630975e-23
1.00943070215051e-21
4.73457978435203e-22
1.95816192727197e-21
1.37269281544232e-20
1.68005700008131e-21
3.08611094077395e-21
2.88370296416805e-21
4.8907839081662e-21
2.06511248475974e-21
9.04780323503709e-21
1.08974254334627e-20
7.47763735601298e-21
7.16505726404276e-22
5.09885597014799e-21
2.69416423751059e-21
8.91482419724763e-21
2.40217301076769e-22
1.40397405282698e-21
6.7345953842208e-22
2.30658491532636e-21
5.30907217420051e-21
3.49131426494403e-22
9.174632794903e-22
1.5113001828201e-22
2.25239168605741e-21
1.16484520733644e-20
9.41292814801769e-21
6.53566178278604e-22
6.99853250505882e-22
2.10234948432527e-22
6.5391082806593e-21
4.20646073675882e-21
2.95469511013914e-22
2.54158306482071e-21
2.54635345350263e-21
2.99132768419862e-22
7.5039219373147e-23
2.41974044818983e-21
5.52204087375534e-21
8.70073393984818e-22
1.86160458922847e-21
7.17999649084393e-21
1.15395148502559e-20
2.6147104053978e-21
1.30287909781348e-20
3.91357481620212e-22
6.15218579118988e-21
8.55984364397455e-22
1.57054456640447e-21
4.58659239318859e-21
4.1818796347086e-21
4.95781248457546e-21
2.26565551508688e-21
1.8523386815499e-21
7.16951887646626e-22
2.56927676886213e-21
1.0225658727661e-20
2.91514435293894e-21
5.80016392736747e-21
4.901670950409e-21
1.79562992743835e-21
5.45121744057743e-22
2.85225613298641e-21
5.53308412500306e-21
1.81131547142758e-21
7.48283358526289e-21
2.12139803966501e-21
3.16958927761326e-21
1.28272071462388e-21
4.35304344724826e-22
1.24278188156472e-21
3.44846311152047e-23
2.58454800270656e-21
1.5287145646265e-20
2.75578953612628e-21
3.93984372454088e-21
2.1858414848233e-21
4.72963121428622e-21
5.01625748351652e-21
1.75298385186214e-21
1.42118589318979e-21
2.79503375037603e-22
9.21235784367674e-22
2.68588397040056e-21
3.94401869462278e-21
1.22240654587941e-21
6.37991603708558e-21
4.87004491746664e-21
1.97463801395447e-21
3.56825578017502e-21
9.03493246494952e-22
8.79532764379987e-22
3.61127589778834e-21
2.57529186543812e-21
6.62486680549421e-21
1.07478158675772e-21
7.36566989395458e-21
1.06208527858877e-22
7.60271499054951e-22
2.59984138200185e-21
1.19792604494118e-21
1.33014157029441e-20
8.78992700596528e-22
8.16623583355612e-21
5.97963194672544e-21
1.29648955262447e-21
4.58268805838734e-21
1.1406275969934e-20
8.2990629925804e-21
4.12856242113037e-22
2.32260711622948e-21
2.65015296227319e-21
2.32904016318627e-21
7.78539050754201e-21
1.31873451908031e-20
3.47491108265977e-21
1.68476329961879e-21
8.14776458668894e-21
2.4525857923566e-21
2.79572043521095e-21
2.04189815874314e-21
3.70239348712852e-21
1.70407914004264e-21
4.28917860179738e-22
6.93935875268913e-22
8.52431538061527e-23
6.58182515607775e-21
2.47832112940779e-21
4.08033644318917e-22
3.07192218308619e-21
2.44296168705845e-21
4.4376089258917e-21
9.34945665106418e-21
5.6953665867155e-21
1.90824294882505e-21
1.35136906276493e-20
9.7146129853795e-22
1.26149466707417e-21
7.50866516104101e-22
3.83403624831254e-21
5.3349126100605e-21
3.83026636113251e-22
9.61370633059191e-21
5.81251264455876e-21
8.28418664597685e-23
1.24141923880207e-22
2.59889723861128e-21
6.43303780838321e-21
2.86659353426623e-21
8.0036009810195e-22
1.17844752322621e-20
2.07489554941624e-21
3.77816727053854e-21
4.71650591949535e-21
1.29184828021902e-22
4.15392204391629e-22
3.96751465087088e-21
6.43485919590577e-21
1.08265833881316e-22
2.02325070273956e-20
2.21510487687091e-21
9.70350607204579e-21
5.36104691884548e-21
3.10032515273913e-21
7.74471475344137e-21
2.25193582909756e-21
1.25208718883341e-21
5.13014906752342e-21
1.09093577270638e-21
2.72933668839938e-21
4.99595706088206e-21
3.44033048401688e-21
8.94809197630403e-22
2.69815085779415e-22
3.97753787512321e-21
3.9343333567379e-21
6.34664593939149e-21
5.01058092540414e-21
7.3758593882799e-21
2.09903477698241e-22
3.00886002267997e-21
5.9251186610108e-22
1.24635534710517e-21
1.1938238937927e-21
1.24813258969888e-21
2.50700649623282e-22
5.22165043856081e-21
8.60427306620495e-22
3.93600781551087e-21
6.16411491027857e-21
1.77560269397226e-21
2.16463433716846e-21
1.24242391503881e-21
4.1254428310891e-21
6.46010314456598e-22
7.27848067719339e-22
1.69360027593122e-21
6.81372865226101e-21
4.31525420694783e-21
2.35033994761722e-22
1.66563911728979e-22
5.69299745358787e-21
4.43162111534064e-21
4.96561234248334e-21
5.90805661397405e-22
3.50015439812903e-21
1.00174411869326e-20
3.4004565600667e-21
5.56765367689981e-21
2.98650112236068e-21
2.90770436127718e-21
1.49306352153992e-21
1.84029164964424e-21
3.09180705810759e-21
1.64323924624357e-21
7.84044050941192e-21
2.13754634522331e-21
3.02438976679678e-21
1.2348213580213e-21
2.30393110716107e-21
1.15785602123737e-21
1.46599892835369e-22
3.485909602014e-22
9.57956530769881e-22
3.89468808325065e-23
9.15995702556762e-21
5.50808561790294e-21
1.12103013571577e-20
1.02796260959083e-20
2.33960512462425e-21
5.02394602229906e-21
3.99256179435025e-21
3.4561553046409e-21
2.45055630687263e-21
3.16709285253395e-21
2.26565576010038e-22
1.15904893597524e-21
3.7632467667788e-22
1.80755730899997e-21
7.44081721315024e-22
3.22039041829816e-21
1.09505891212042e-20
4.68520874398813e-21
1.63648070712675e-21
3.46790817201868e-21
6.82249850648446e-21
6.92044128899098e-22
1.89161500071126e-21
1.22099733635468e-20
7.65538373837607e-21
6.15105845851576e-21
2.93035844805918e-21
5.78558372716796e-21
7.2665689535854e-21
4.1667559641044e-21
5.59619615459375e-21
1.27708313706989e-20
1.0388984905881e-21
6.99021055442387e-22
6.61143061135277e-21
4.81134316074721e-23
2.3483102206645e-22
7.88766274198756e-21
1.43307720310649e-21
8.51216704309874e-21
1.52341168035608e-21
4.10993284986032e-22
2.61359634724592e-21
7.58586133862149e-21
5.12032640553019e-21
3.3982418056233e-21
3.42109371475489e-21
2.72520751985196e-22
1.3300898058688e-22
2.9296565998814e-21
1.75006968780419e-21
6.69596630710941e-22
5.89711173557272e-21
2.6892503692961e-21
8.91785095550428e-22
9.86471724189528e-22
1.14286056110214e-21
2.46721007037541e-21
9.96486459469705e-21
5.3888303341239e-21
7.06803617228156e-21
9.13735409014779e-21
1.850289347337e-20
9.6900771953377e-22
4.98532900199233e-22
1.95853346037686e-21
9.7943546686427e-22
2.10377385816571e-21
1.30187087533067e-21
6.16363704118825e-21
1.99410212126361e-21
6.57009900416312e-21
2.81067744275667e-21
3.77648200799017e-21
3.00765957903107e-21
6.06142810543592e-21
1.16142990121516e-20
3.75859014110629e-21
8.30925779598776e-21
5.30744972920173e-22
8.90391817711142e-22
2.1978018693383e-21
2.46614305474297e-21
1.65514351630856e-21
2.89410878501101e-21
1.16400385678773e-20
3.54594203359387e-21
8.73986311896422e-22
1.18411016858073e-21
5.35556592082761e-21
1.19378294240319e-21
4.36460483640503e-22
4.60128233125154e-21
2.62740483432264e-21
2.46450269673135e-21
3.27322026693821e-21
5.78723278406589e-21
6.95407009875077e-22
2.88947654979997e-22
1.61547125339004e-22
9.57029267042192e-22
1.00064322137387e-20
6.31895306559843e-21
1.09843281647049e-20
4.51830922421645e-21
3.74392103947103e-21
7.17875753488208e-21
2.18994781620984e-22
1.93240942256049e-21
1.09935907020626e-20
2.72355424344691e-21
3.6483654975398e-22
1.10503517294762e-21
2.59406561164516e-21
3.56644331315029e-21
6.15540994394386e-21
1.39713594001098e-21
8.76819026738522e-24
1.41665235900765e-20
6.52631153811331e-21
3.49865342496411e-21
1.27325148237943e-21
1.61779015628157e-22
3.10939290747935e-21
5.28982562892338e-21
1.64956069795985e-21
3.44065171150201e-21
7.56128158339491e-21
3.47613210153776e-21
6.66438627506957e-21
3.49536169515366e-21
4.12143926983488e-21
6.3099124654154e-21
2.79078863686375e-21
3.84213903627446e-22
2.09554448875268e-22
1.71797996593577e-20
2.54591626891536e-22
2.1809254734243e-22
7.40818896769582e-22
4.93238514216893e-21
3.55925205034472e-21
3.59532309394235e-21
3.95120838069163e-21
4.97411348162192e-22
1.94225325515979e-21
5.00402880701614e-21
4.55760372297042e-21
4.50133091489569e-21
3.22756890226843e-21
5.85844500646671e-21
1.42079997271775e-21
4.79775504224248e-21
1.9167109976952e-21
1.96414220389664e-21
2.99804153331288e-21
1.61893431789168e-20
2.60778507288605e-23
4.56041971806219e-21
1.09512776714511e-20
8.69258070005309e-22
9.66446494955355e-22
5.56874953603505e-22
5.06003346103811e-21
4.11733205431881e-22
5.81086645764674e-22
3.21926287602996e-21
3.85790406735631e-21
2.34808521836743e-21
4.07519479464672e-21
1.78832443539491e-21
3.41941814387857e-21
5.67995618786897e-22
6.56132209227106e-22
2.02599057426222e-22
3.78877307336943e-21
6.02114599294583e-21
2.54331642146651e-21
4.49635955458208e-21
6.61378962831861e-22
8.13630518861243e-22
9.56945332105302e-22
2.54493386598571e-21
2.76017429325423e-22
3.16548344981273e-21
7.21941323553495e-22
4.81845274139111e-21
4.34245026304334e-21
6.38583101362641e-21
7.91428062840443e-21
1.5326764842277e-21
2.69069579673026e-21
2.37682452670971e-21
8.09921748677848e-22
2.83870298077485e-22
2.30788584976844e-21
2.35183229357773e-21
2.02737424899606e-21
6.17192723736138e-22
4.27974062796618e-22
3.09558551776302e-21
4.92275165550915e-21
2.53082659583001e-22
3.95924030372397e-21
1.92209815597076e-21
3.04650179271032e-21
1.66393653682729e-21
1.25161639985572e-22
1.25014787847379e-20
5.36845927145183e-21
2.81676696357824e-21
3.24953892560234e-21
5.28968143529133e-21
4.12023996072479e-22
5.51805647593509e-21
4.06463217664805e-21
8.00600043032254e-21
7.10991955603985e-22
8.00418137075314e-22
9.10012135923022e-22
1.00063804257476e-22
2.9647677634745e-22
1.22527047838052e-21
2.68397309943699e-22
1.16279585634406e-21
4.41396015299229e-21
9.68706212985216e-22
2.44288218543457e-23
1.14114968809239e-21
4.82950206619224e-21
1.725658098647e-21
3.92101900869429e-21
4.95109629680406e-22
5.26846930209578e-21
4.92496110939457e-21
4.00740405273145e-21
4.01393012165515e-21
2.8759666832864e-21
1.98041579557532e-21
5.19012981012638e-21
2.17681786350754e-21
2.60370996197229e-21
2.60802432918964e-21
6.56515291363549e-21
1.10127922307091e-21
6.01879161230616e-21
2.44446843111219e-21
6.8368870420219e-22
9.01151276573817e-21
2.50154169834887e-21
8.33497859624176e-21
7.10576544338296e-21
8.23882024661108e-21
1.63626354565475e-22
6.6719972083578e-21
8.13186054693056e-21
3.62069092060713e-21
6.37118037573637e-21
1.065421843708e-21
4.76790187288997e-21
9.01499121700767e-23
7.70790044940308e-22
1.61619691752783e-21
2.13603488953791e-22
1.274021410063e-21
4.75145674381674e-22
6.63159934300271e-21
1.72696531665235e-20
8.31255522370071e-21
6.63726048413441e-21
1.55505462213591e-21
7.86170694562352e-21
1.01865443098985e-21
6.24412152359096e-21
4.51090540167477e-22
1.84702507694643e-21
4.56743360176996e-21
1.36161583419648e-21
3.98317281974302e-21
3.43683110632996e-21
6.61356057098241e-21
1.93411202614244e-21
8.30094031205927e-21
1.23131824101782e-21
7.83057149799975e-21
8.32770723367257e-21
1.76824224722031e-23
5.01910117845341e-21
1.69979351537904e-20
3.27107594607786e-21
1.84670935541627e-21
6.27644695971071e-21
3.11570515232426e-22
5.02341680604846e-21
2.52184045093644e-21
8.23212898579637e-21
1.38540725340324e-21
2.02719222881087e-21
1.40942627864949e-21
5.36642993880778e-21
1.2662182303182e-21
2.86110088660462e-21
1.17508371388076e-21
7.92872794746189e-21
3.47123029787135e-21
1.41023527319397e-20
1.29052783626514e-21
2.44624210997632e-21
1.59294580964598e-21
8.78100102921505e-21
3.49199418075454e-21
9.09180705094009e-21
1.1344871634228e-21
6.42743271768888e-21
1.14930393221624e-21
8.7551228679697e-22
4.56890194856068e-21
4.94100447684154e-21
1.28774117491762e-20
1.698122350923e-22
2.98914344190923e-21
3.24415796416148e-22
1.19989002447609e-20
1.36148148459446e-21
2.34716689417272e-21
9.47991086899665e-22
5.16181418687883e-21
6.22354879432634e-22
1.26501173353939e-21
4.95489575457224e-21
1.04536508831184e-20
2.96709215114348e-21
2.22445018106958e-21
8.71940328519351e-21
1.93101376368525e-21
1.6836316796228e-21
1.33554927827433e-21
3.94535925973442e-21
3.2579435199325e-21
3.90176424355501e-21
2.07292518138382e-21
8.70012862438009e-21
1.7930756473125e-21
8.44651748710535e-22
1.88783365131057e-21
7.26331459381863e-21
2.4969436797178e-22
1.44875105543003e-22
2.19843097604628e-21
2.49126630910169e-21
7.63555490690696e-22
1.1403203884253e-20
9.20727373885472e-21
2.63602007685948e-21
1.14702323832502e-20
1.59088422333802e-20
3.28851343183012e-21
1.2691903023279e-21
8.55693385199864e-21
7.63328014971105e-21
8.26812466227821e-22
3.33204462232783e-21
1.13431966683159e-20
2.66261210576765e-21
5.92720013609334e-22
3.81155670856318e-21
1.38529776423477e-20
1.37043327365182e-21
1.91912928333447e-21
5.58693340779089e-21
6.11912172469589e-21
3.10151180217727e-21
8.82554945317612e-22
1.02735787617235e-20
1.06334751328312e-20
3.02785142239004e-23
5.95439621265546e-21
1.31307478017334e-21
1.41058255921494e-21
7.71764308161282e-21
7.624064881551e-22
1.02867882580932e-20
1.11041543645205e-21
1.63608827634394e-21
2.04385571940846e-20
1.42233362473245e-21
2.17310006167757e-21
1.31810900413799e-20
2.5428261010329e-21
4.67614964460933e-22
2.98632503125084e-21
4.96481855917605e-21
4.25127870299285e-21
5.58241093679359e-22
2.36359235358288e-21
1.11069987259392e-21
1.22244370005923e-21
1.04046380237781e-20
8.4270203240592e-22
7.93565080693849e-21
9.88045240510636e-21
2.09540858811572e-21
2.9985951298817e-21
5.62760539560309e-21
1.68504815523984e-21
1.10703680512531e-22
2.36009054329345e-21
2.37709081054947e-21
5.99125671808533e-21
5.22019571918664e-21
1.40499974454603e-21
1.09625992515703e-20
3.87248808980935e-21
4.41732229504702e-21
4.97798309550176e-22
1.89258866001532e-21
7.33678853769513e-22
2.08340233854554e-21
9.92282720569205e-22
1.1668647156374e-20
1.6807156024575e-21
5.49054946877121e-21
4.65365854985903e-21
8.08437777312862e-21
4.44776105943444e-21
2.39024672655323e-21
9.50675186495201e-21
1.73601094843232e-21
4.27794793914331e-21
1.52373670227226e-20
6.61391049707904e-21
2.44576578632485e-21
8.84576673622075e-21
2.59383167008576e-20
1.38712285453617e-21
9.05192610826183e-21
2.42108982255057e-22
6.79027478278791e-21
1.10751473566512e-21
3.83526776366074e-22
1.74856752962477e-21
1.58319386516795e-21
5.65806781290987e-21
1.59401874462266e-21
7.46338858153913e-21
9.11660890070101e-23
6.08265539260768e-21
1.92148506718107e-22
1.80190695676166e-21
8.08880810236988e-21
3.6559556522895e-21
1.28005054732406e-20
3.8400684940405e-21
7.77387557573908e-21
5.07907581346463e-21
8.53201832827923e-23
1.22985530608992e-20
1.48594020645811e-21
2.64904876016745e-21
3.99437747034648e-21
2.43061597388424e-21
4.48954988544256e-22
2.89423376406631e-21
2.31978992222097e-21
9.37055866606643e-22
3.33134175357365e-21
6.37220233907041e-21
2.27813229517926e-21
5.28537972143896e-21
8.77767887374398e-21
1.74596016703746e-21
6.88048792669408e-21
4.78838649708552e-22
3.52399700802081e-21
9.33920993143334e-21
1.09134290828806e-20
6.49476351061867e-21
4.25843558600118e-22
1.95019889096254e-22
2.47071168208226e-21
4.74170593594472e-21
9.12383269608275e-21
2.34429133107094e-21
4.76156194728841e-23
4.28942740117689e-21
2.90459910496938e-21
4.69883864360873e-21
5.73224387663647e-21
1.39507859486292e-21
5.443411600392e-21
2.90088270804665e-21
2.02899009229176e-22
8.90909682282831e-22
2.21090779056744e-21
5.54170961174942e-22
2.5136265554301e-21
1.301345634106e-21
7.30572101094551e-21
8.79157510468396e-22
4.30343726309161e-22
1.77608245105866e-21
4.53195984201702e-21
1.3113679133467e-20
4.76484455187032e-21
6.36976873779302e-22
7.14537806980588e-21
4.37754753121061e-21
5.75256414499852e-22
4.63315778206885e-21
1.6056911604278e-22
5.71450878826617e-22
1.87727085641462e-21
1.84175736344826e-20
3.44636473991474e-21
5.68034665526372e-21
1.26305433973437e-21
3.82633578074281e-22
5.00572538534797e-22
7.39738466573872e-21
2.52641626068246e-21
2.91762024014116e-20
6.58459091668134e-21
8.50609989627731e-21
6.18321183685655e-21
1.17394942771442e-20
1.03168310728138e-21
3.75483605557771e-22
3.2641497583433e-21
1.11852527263167e-21
1.61210538166386e-21
2.48187376136656e-21
1.50467993350271e-21
1.09181684182382e-21
7.12907372058572e-21
2.08990785644889e-21
5.4179265859251e-23
7.8272160996651e-22
2.82367532930163e-21
2.04082948008397e-21
2.72440876268076e-21
2.65738425366478e-21
3.42151333311577e-21
4.72088512698227e-21
3.69763435333871e-21
4.70298429750776e-21
2.83273610058235e-21
9.44364726071233e-21
4.97560699920528e-22
1.4071547329936e-21
1.33136658848531e-21
1.05701400063394e-20
2.1749008438782e-21
1.44527452021887e-21
7.62484206826434e-21
9.42628644499837e-21
5.3701991392039e-21
2.1916683076298e-21
9.29452739784838e-21
3.98115074554573e-21
2.39787828443799e-21
7.56903238099039e-22
2.24485340146312e-21
4.79546223366344e-21
1.24391885094916e-21
4.7112779817924e-21
9.61675868890064e-22
1.65164471119917e-21
2.59532462880829e-21
4.68328533731265e-21
9.08989191431921e-22
2.57187385290351e-21
3.73087433304181e-21
2.45659811932782e-21
4.48127987239728e-21
3.29472856908288e-22
5.59762647133068e-22
7.35669270960184e-22
3.31297310814422e-21
5.06776799216931e-21
1.31998112772596e-20
1.59822351384811e-21
9.11564043367951e-22
5.8273949053019e-21
3.64565492531395e-21
2.41587534640203e-21
2.60662158676658e-21
2.56265084174276e-21
4.70265163212858e-21
2.34576407240983e-20
3.19409540195421e-21
7.06315965209624e-21
3.24601412398838e-22
1.38789072969351e-22
2.20062129595407e-21
2.54175715168058e-21
5.38438315463654e-21
8.28559161693214e-22
1.10097247800785e-21
5.49222628609642e-21
1.77797639543604e-21
3.29101463632822e-21
1.78628218515528e-21
7.79683661535428e-21
1.90040044242339e-21
9.05608992086786e-22
1.11383427753694e-21
1.44724205685271e-21
1.03613629935283e-21
5.22782638738725e-22
1.29371293000951e-21
4.20520700924436e-21
6.63561729356284e-22
4.56355393210102e-22
3.13349996492058e-21
5.36925626624377e-22
2.04046667603311e-21
2.51647020298074e-21
1.0993542605523e-20
1.58177520834161e-21
6.04036088880847e-21
3.67900991282601e-21
1.85293044606387e-20
4.64748279904052e-21
4.20647345251129e-22
8.31721701754939e-21
3.70478857661393e-21
4.55651918221467e-21
5.30848724048618e-21
1.06033031444744e-21
5.55174836797241e-22
3.27884602450879e-21
7.00233714547504e-21
6.69056480086234e-21
2.24478110804906e-20
3.55198195899166e-21
7.89419731261902e-21
5.23444066942939e-21
3.37056924986251e-21
6.51694355519213e-21
5.99064062655764e-21
7.48877034272626e-21
7.841626450025e-22
4.56589682827108e-21
2.74316634375376e-21
4.84176281125803e-21
4.49675448058457e-21
2.16874721067982e-21
6.90533901613753e-22
2.36296716985084e-21
7.65511780020065e-21
5.27495116858895e-21
5.93878500951607e-21
7.39982748408735e-21
6.09278526585696e-24
1.0439825176549e-23
3.5235955373445e-21
7.05284390303081e-21
1.27890692463363e-21
7.31079644566209e-22
7.49314077089695e-21
1.82956177283796e-21
3.63013340676752e-22
1.18701535571296e-20
5.36833343202168e-22
1.02646689674306e-20
1.08248375176967e-20
5.70977675640734e-21
7.17188422576029e-21
3.89665795361319e-21
1.79620569901544e-22
3.74280925316018e-22
2.23208898764003e-21
1.47651226310995e-21
7.8772365217657e-21
3.59591971903158e-21
3.0425904575149e-22
2.95629057803106e-21
4.04235733060403e-21
3.32279438656464e-21
9.05007145411402e-21
8.7424560791293e-21
4.51911244302586e-21
1.00017315140084e-21