/*--------------------------------*- C++ -*----------------------------------*\
| =========                 |                                                 |
| \\      /  F ield         | OpenFOAM: The Open Source CFD Toolbox           |
|  \\    /   O peration     | Version:  2406                                  |
|   \\  /    A nd           | Website:  www.openfoam.com                      |
|    \\/     M anipulation  |                                                 |
\*---------------------------------------------------------------------------*/
FoamFile
{
    version     2.0;
    format      ascii;
    arch        "LSB;label=32;scalar=64";
    class       Cloud<dsmcParcel>;
    location    "0/lagrangian/dsmc";
    object      positions;
}
// * * * * * * * * * * * * * * * * * * * * * * * * * * * * * * * * * * * * * //

4305
(
(0.0812937563734699 0.026377951906551 0.00133820863098699) 0
(0.0828106686755483 0.0238089205485042 -0.0003227616810187) 0
(0.0805944462825624 0.0276444580244407 0.000554078196312477) 0
(0.0813206533041527 0.0236391669019954 0.001771856416045) 0
(0.0788071356897963 0.0276390576738553 -0.00380808882927397) 0
(0.0831493821320557 0.0267420942604878 -0.0035836813052505) 0
(0.082250141995862 0.0254307935376867 0.0035988624252094) 0
(0.0762201697346425 0.0210476217983591 -0.00178958263161716) 0
(0.0784172640875561 0.0248687866616292 0.00166886247165235) 0
(0.0764111745228403 0.0226037057127615 -0.0017893127981532) 0
(0.0895925722844099 0.0283422106612713 0.000461632963615067) 1
(0.0841473535464876 0.0292527239943002 0.00122704310322172) 1
(0.084505445977707 0.0229367822986331 0.000591306540709117) 1
(0.0879292267413137 0.0278878086985114 -0.00367930602869631) 1
(0.0865994593603102 0.0272119195898695 -0.00265515635153295) 1
(0.0895666296765975 0.0256172303766241 -0.00281127732712499) 1
(0.0898999516491527 0.0265946657223732 -0.00393524129549693) 1
(0.0881255341762811 0.026782300603259 0.00214255160558996) 1
(0.0897189469852072 0.0270952635630497 0.00281298972822895) 1
(0.0988842406348722 0.0297194529561473 0.00389024027955352) 2
(0.093358838845683 0.0315568601460371 -0.000919347429955654) 2
(0.0967541733940648 0.0320541247624587 -0.0020089187252572) 2
(0.0975852374721846 0.0273869249251682 -0.00148728499571151) 2
(0.0985612321948825 0.0265369442350927 0.00296184286745147) 2
(0.092626410220484 0.0291462070732203 -0.00305167460447431) 2
(0.0941635845558067 0.0273142058354934 0.00341184557634778) 2
(0.092369539079528 0.0286738529448669 -0.00087096298359722) 2
(0.0921209435318876 0.0307856492186682 0.00310460606393485) 2
(0.0931701832846024 0.0277583601992851 0.000403957755104892) 2
(0.10451651971213 0.0316317606164085 -9.15779389678178e-05) 3
(0.105595626492785 0.0350039777949023 -0.000395476278761348) 3
(0.105495697153886 0.0291757308220541 -0.00257902950799414) 3
(0.101402649072411 0.0335359201927654 -0.00416603194105766) 3
(0.10020791158152 0.0278500216428148 0.00396983448807968) 3
(0.105485239036593 0.0346404548415656 0.003822148337311) 3
(0.1002841886294 0.0323445732459381 -0.00256350727348883) 3
(0.100283080288843 0.030142462115042 0.00019720498950018) 3
(0.113863546929348 0.0340322649715452 -0.00190384357032856) 4
(0.111706386460356 0.0366039146317184 -0.00343782666778145) 4
(0.111805499069357 0.030029976052707 -9.62044327968209e-05) 4
(0.111152305685349 0.0306260311233446 0.00388529912975619) 4
(0.108417174579343 0.0345937213031293 0.00314098227237367) 4
(0.107052482380535 0.032200193555973 -0.00321611614802847) 4
(0.107415166964352 0.0307506887055454 0.00196964932562733) 4
(0.115226525370324 0.0373434114176647 -0.00308187703258906) 5
(0.121513122053836 0.0354172074181801 -0.00377832294148062) 5
(0.116574866226503 0.0370695928454891 0.0039025120926324) 5
(0.116751887243899 0.0339078112913793 0.000311550856000422) 5
(0.129373734906225 0.0380319095958373 -0.00337493253543502) 6
(0.1289653970268 0.0358077684890188 0.00143031210813125) 6
(0.127589184649998 0.040598720508628 0.00241079600398118) 6
(0.125285477269497 0.033666003215013 -0.00152050413174951) 6
(0.126879681271337 0.0346998823061262 0.00306448329945757) 6
(0.124886230773745 0.0362660050223825 -0.00331044258016787) 6
(0.122215738048708 0.0354080108653935 -0.00410615617313664) 6
(0.12497898149866 0.0354397282772808 -0.00381981899016561) 6
(0.127450404419998 0.0371479072841513 0.00322473428567158) 6
(0.125721677501826 0.0373771068285722 0.00391997743017772) 6
(0.12295540348701 0.0347531664388016 0.000229412106876996) 6
(0.135782722453744 0.0414804040685651 -0.00131182522886323) 7
(0.131481581562549 0.0415639347083499 0.00312252398987631) 7
(0.134953228801158 0.0370391832165057 0.000800869161413175) 7
(0.130874439180606 0.0373716917434144 0.00394228279673235) 7
(0.130377504438518 0.0401670469222841 -0.000702616643847032) 7
(0.130127586332473 0.0365112639865617 -0.00194264612083009) 7
(0.143666501404639 0.0417936552567801 -0.000875594681705191) 8
(0.143487942542596 0.0439405445846903 -0.000457494983841845) 8
(0.142876824398469 0.0384715475622412 -0.00155126040387588) 8
(0.138911975781697 0.038040049482335 0.00178487409415605) 8
(0.13978714637732 0.0400819997850339 -0.00250283496218815) 8
(0.142708106622495 0.0422251382141955 -0.00266025982177833) 8
(0.138273369019662 0.042685814570706 0.00350783093368601) 8
(0.138911064212559 0.0413493459451998 0.00130153690468074) 8
(0.151495950878823 0.0449324677364553 1.30707328052195e-05) 9
(0.149105389818058 0.043259359202849 -0.000514404091269439) 9
(0.152071889191468 0.0424748644008806 0.00194408475443475) 9
(0.149487480417916 0.0463144201385598 -0.00234641696618016) 9
(0.148240054257094 0.0401209421127211 -0.0015401798984526) 9
(0.150089250790348 0.0416229210411727 -0.00189345362864893) 9
(0.146877886524341 0.0409465344249525 0.00183620959001569) 9
(0.148613455879338 0.0446196846006851 -0.00298502458283677) 9
(0.14704569049334 0.0415970863295784 0.00401840990081085) 9
(0.145284836136016 0.044284569049781 -0.00252950151970349) 9
(0.146517919309018 0.0432766347614412 -0.00185704450406667) 9
(0.159829735980865 0.0467386167165551 -0.00240455026583237) 10
(0.158210029136826 0.0442363189076434 0.000206500370430554) 10
(0.158640909125163 0.0489072385733315 0.00294605726624158) 10
(0.159509113605782 0.048949248327297 0.00158661079091244) 10
(0.158919798600504 0.0490047143981968 -0.00150353193823025) 10
(0.157144185452422 0.0430230070107718 -0.000598805972826341) 10
(0.152825999908462 0.0429463106033985 -0.00382526181452512) 10
(0.155921668177444 0.0443056126139234 -0.00364752905216747) 10
(0.153108248807675 0.04678302178916 -0.00273045879109158) 10
(0.155128412715325 0.0441534648187673 0.00081618668972561) 10
(0.166856246040683 0.0470605544226175 -0.00159294734995255) 11
(0.166536039669435 0.0488891540513483 0.00189202950642717) 11
(0.167496549983357 0.047761651822378 0.000205375144659087) 11
(0.163120077755771 0.0489923617376185 -0.000371715583493903) 11
(0.165404084896079 0.0490119105987476 0.00023824384103932) 11
(0.163662978311981 0.0459217902516288 0.00294181997047083) 11
(0.162697066708769 0.0490220464473266 0.00314180107062834) 11
(0.16388554844361 0.0490146931338303 0.00272600263274932) 11
(0.174376468214728 0.050644338328739 -0.00102154376201026) 12
(0.173092182365697 0.0487308075421295 0.000497015386866308) 12
(0.170594473129133 0.0501620603889 -0.000468729283336897) 12
(0.172198363893511 0.0520337394856624 -0.000191751230185635) 12
(0.170062339754036 0.0457048626215928 -0.0025249642964287) 12
(0.170610591669195 0.0457232629221828 0.00223171276012513) 12
(0.16968596835206 0.0494738776751186 -0.00374892694168288) 12
(0.172727504626136 0.0496034902256736 -0.00162608544483555) 12
(0.173247436725119 0.0480578785301391 0.00308808771974357) 12
(0.171634144624783 0.046196779560921 0.0041833241444637) 12
(0.170629412761206 0.0508509076179838 0.00394227072693853) 12
(0.168555060258318 0.0473468178956517 0.000610413119177335) 12
(0.182627574778967 0.0544785112976304 0.000682822232288125) 13
(0.180983129108713 0.0512765597614282 0.000817271034648855) 13
(0.17848847007135 0.0525832292780117 0.00192720612671956) 13
(0.179784306143156 0.0525549839160476 -6.05268716165593e-05) 13
(0.178781218479103 0.0489181259050229 -0.00283695069545771) 13
(0.182045461233173 0.0494347329151977 -0.000610280914570254) 13
(0.178718358934709 0.0481962346565633 -0.000125130371258233) 13
(0.179021635494356 0.0511732389416464 -0.000854545392603457) 13
(0.178476046688019 0.0522600787604931 -0.00341902893126119) 13
(0.17721913569264 0.0535470687756419 0.00415000306122765) 13
(0.177326545402588 0.0515978025985656 0.00133908952542587) 13
(0.190071784229864 0.0525126606688184 -0.00370445701140731) 14
(0.1884354299282 0.0522337201015194 -0.000112725221439569) 14
(0.188330387866797 0.0519425713910456 -0.00109884846384288) 14
(0.185661167628356 0.0522871286734267 -0.00318019257656793) 14
(0.182971076249051 0.0517663688165092 -0.00385515023201462) 14
(0.183818831453432 0.0546534631055429 0.00207864897507922) 14
(0.183432853175696 0.0542471347060998 0.00281830339745292) 14
(0.196467782462923 0.0545464443198895 -7.80491388429919e-05) 15
(0.190736923424934 0.0539070598035256 -0.00130117988661849) 15
(0.191574239090599 0.0542363309125747 0.00255650386366285) 15
(0.205493180593164 0.0598053249738388 0.00223498804084683) 16
(0.205623354346479 0.0558564951607976 0.000449873919379251) 16
(0.19893680023821 0.0591257158625141 0.00372589367843752) 16
(0.201388184442153 0.0542631816404189 -0.000816243527916488) 16
(0.201641250314262 0.0542049497359267 -0.00297569062533505) 16
(0.202418256246061 0.0542806504090018 0.00366544797073674) 16
(0.202036088670168 0.0574208308683 -0.00227073511033519) 16
(0.201335210255507 0.056623608114445 -0.00375379568088753) 16
(0.203305564153061 0.0563986271319686 -0.00160913986921146) 16
(0.204491991862875 0.0573317522591349 0.00357882833237584) 16
(0.202301490459929 0.058975339724398 0.00268590490875312) 16
(0.199097185721582 0.056916049057587 -0.000348682722395204) 16
(0.212623569079593 0.0599899411960974 -5.3537085697867e-05) 17
(0.207824785166211 0.0611683635977262 0.000986013031179584) 17
(0.207538295944244 0.0610333278214973 0.000549066529312077) 17
(0.207846306771157 0.0569140981379464 0.00251338177394165) 17
(0.209713440399113 0.0591406550720307 -0.00361304389474593) 17
(0.211107045176324 0.0593154684640939 0.00366649681301455) 17
(0.210218415199014 0.0581262451825904 0.00200347623704347) 17
(0.207746965112288 0.0585947767674037 0.0027725146936916) 17
(0.220874487571466 0.0624691064846254 -0.00311094063782071) 18
(0.220881713575966 0.0615535445878633 0.00309377743295658) 18
(0.218769396264504 0.0612621199945548 -0.000405309089483228) 18
(0.21909527254613 0.0636633087811295 0.00177101882055993) 18
(0.220535344427785 0.0592811194390027 0.000884359294421681) 18
(0.218848767048468 0.0592654369543795 0.00299958937635954) 18
(0.21775528269847 0.0615117592290691 -0.00188011320724612) 18
(0.218252167729247 0.0598290242579151 0.0028829802664775) 18
(0.214813204001737 0.059189166143693 -0.00218234761071286) 18
(0.214069175306821 0.0603829232747052 -0.00152606526582829) 18
(0.21469286700886 0.059619278251211 -0.00108759688317052) 18
(0.227941698985645 0.0663679113313557 0.000627026642025365) 19
(0.224770222817335 0.0645560463707338 0.00165559097348869) 19
(0.225620017761234 0.0624902783797543 -0.000496674082066908) 19
(0.221111965735984 0.062142816423026 -0.000727347908644287) 19
(0.222778359809942 0.0624394912893346 0.00171317213017532) 19
(0.235765617776446 0.0680138307922207 -0.00152514384438806) 20
(0.229672904587252 0.0673432167644719 0.000450240495601081) 20
(0.23141638423136 0.0674877938873812 -0.00310867483155143) 20
(0.229527571468462 0.0621730825674148 4.44224663658976e-05) 20
(0.231706163632756 0.0648944009817732 -0.003620477602343) 20
(0.234864845958116 0.0643688033904983 -0.00404424489132168) 20
(0.234884986626265 0.0674967736934887 0.00411524654152486) 20
(0.231705029628622 0.0659806154458376 0.00292605219520891) 20
(0.229410475494076 0.0660760892414494 -0.00086544125720286) 20
(0.229213556565276 0.0649762648910631 -0.0014943232197936) 20
(0.228715772427581 0.0631173457340069 0.000940082687418406) 20
(0.243299399753842 0.0696257905523069 -0.00139414713713696) 21
(0.243834436989568 0.0703897550666277 -0.00368494147247593) 21
(0.243256336598025 0.0682190188817681 0.00302155660964126) 21
(0.243446917384957 0.0666334537228483 0.00280544281476606) 21
(0.239134742523462 0.0689550795413168 -0.000254879918454982) 21
(0.241137340551935 0.0660779298369746 -0.000692101689805277) 21
(0.24041772385874 0.06547527722594 0.00200569380598875) 21
(0.238002512434589 0.0693812200525831 -0.00392589612037472) 21
(0.238275663652804 0.0682423746537319 0.00391923670675424) 21
(0.237391412296354 0.0684043176652734 -0.00125479445883489) 21
(0.238548179682825 0.0660686787012268 -0.000275937351918566) 21
(0.237701060942747 0.0667938834514878 0.000776834487721447) 21
(0.251241124263892 0.0691992638122962 -0.000641366617141207) 22
(0.24575169267327 0.0709273594516814 0.00292510400902451) 22
(0.2457116362471 0.0707055665142701 -0.00160436670424991) 22
(0.249964569697204 0.0671932944688416 -0.00122092382574156) 22
(0.245901123248583 0.0666489653586486 -0.00148923924558393) 22
(0.246062738008283 0.0696134306749023 -0.00267309606702909) 22
(0.248359132971293 0.0693370162094244 -0.00259933153254583) 22
(0.247705421807693 0.0673320290516337 0.00360168012978213) 22
(0.245874779023861 0.0677877709946292 0.00348332792667691) 22
(0.243869550307881 0.068834606897232 -0.00055783770815597) 22
(0.257357223882583 0.072420872686201 -0.000505634331077166) 23
(0.256603026989201 0.0740602924970721 0.0019206393577667) 23
(0.251825225297608 0.0678394431829025 -0.00382441330969968) 23
(0.256434942286369 0.0697990196239165 0.00318999490792372) 23
(0.251668171218553 0.0686496718939338 0.00155375180700493) 23
(0.265972976544834 0.0744855932838876 -0.00196258748936283) 24
(0.264935456294406 0.0762027225032412 0.00179633490462827) 24
(0.262951109737798 0.0721541133083846 0.0013656617602883) 24
(0.261638293903999 0.0737031338432598 -0.00139623200273776) 24
(0.266077165640002 0.0728610732061915 -0.00417282260461754) 24
(0.262314747993933 0.0715531848918465 -0.00264609283261561) 24
(0.265933265474672 0.0723000484666207 0.0037548775665207) 24
(0.261418667108292 0.0722752910444541 0.00236788394167536) 24
(0.26074287925686 0.0742738657218616 0.000665824268029974) 24
(0.259828839882743 0.0714365378840827 6.47558453477301e-05) 24
(0.271668665143912 0.0747386466711282 0.000385317354765616) 25
(0.269986448152013 0.0740282630293217 0.00109404502516824) 25
(0.2726089695575 0.0754647227177456 0.00321425726314491) 25
(0.270325687343357 0.0752672787220226 0.00273385458019603) 25
(0.267978127516291 0.0731596452888487 0.00285300347030056) 25
(0.267709083140744 0.0753287426617013 0.00108007671989236) 25
(0.269785800462909 0.0752029597775181 0.000135976679998647) 25
(0.278930553507301 0.0803176445784504 0.00211141713562621) 26
(0.275150461100035 0.0771310446330029 -0.00160657989015854) 26
(0.288119546669268 0.0777299697306512 0.00249381497159552) 27
(0.286695323013176 0.0782313358761113 0.00171103346415999) 27
(0.285138982083709 0.0796279381157487 -0.00164333409935049) 27
(0.288106739881711 0.0785500461848908 0.00349264948010869) 27
(0.281985676833705 0.0789221832591438 -0.00401004181275965) 27
(0.296590121377627 0.0818540036959997 0.00195495733336652) 28
(0.294856801812961 0.0842765990576668 -0.000955372675850479) 28
(0.292713768208856 0.079924064127615 -0.000811324488460989) 28
(0.291819441439438 0.0809642985083498 -0.00299721838080431) 28
(0.293957834795985 0.0795492009099558 0.00361185023190308) 28
(0.290086926402744 0.0818484664994495 0.000111846959280672) 28
(0.29058583022765 0.0791326981464061 0.00237573902386779) 28
(0.302347966422561 0.0864087167804262 -5.98413785870401e-05) 29
(0.304694536631073 0.0866999167092245 -1.21465376921089e-05) 29
(0.302890324151002 0.0819075477749268 -0.000869809113871493) 29
(0.302233415582888 0.0843970504647367 0.0023321496099362) 29
(0.0824561793265088 0.0321682489610314 -0.00151594286602288) 30
(0.0826579339789787 0.0330185273802194 0.00160837141653439) 30
(0.0821229136824349 0.0344035208237844 0.00142919339002731) 30
(0.0814891628532 0.0338721161006375 -0.00375341486281821) 30
(0.081648870213962 0.0311826666799762 0.002049347488947) 30
(0.0776077903837309 0.0318605290018075 0.00370284079424181) 30
(0.0763389956627562 0.0287491222047157 0.00182536937942199) 30
(0.0810017825014357 0.0311408954847876 -0.000396935925680668) 30
(0.0914131297867624 0.0381916157294559 -0.000720115690072772) 31
(0.0867338639235261 0.0349744463376843 0.000505467093715677) 31
(0.0879523524248783 0.035054713137578 -0.00296267426255785) 31
(0.087441531479906 0.0349337436535575 -0.00256783924515642) 31
(0.0881708816476695 0.0342457652159956 -0.00309714482650393) 31
(0.0857807373452525 0.0340019638770425 0.00284032437877373) 31
(0.0856481211647964 0.0305658529098448 0.00243820921648417) 31
(0.0902369075353312 0.0316097180167329 -0.00251786539505259) 31
(0.0841391975771562 0.035799648480018 0.00275630193384348) 31
(0.0980528085161313 0.0348358319361464 0.0028091900472654) 32
(0.0964425762969613 0.0336012092344956 0.00388487181762258) 32
(0.0972784372698954 0.0371698585685112 0.00250032890147417) 32
(0.0948123729964622 0.0353180078384238 0.00117052140976434) 32
(0.0965279746898232 0.0344728193821909 -0.00174698618567061) 32
(0.0915281651386889 0.0315358492340787 0.00292835622326742) 32
(0.106157348619955 0.0391900286782975 -0.00211971758511776) 33
(0.105776357044124 0.0374142046633558 0.00128337298508464) 33
(0.101831502544162 0.0399938331819548 0.000283471824831562) 33
(0.10146697034061 0.0400669175240575 -0.00302311189523464) 33
(0.102481607841942 0.0380272845291547 -0.000549849366660837) 33
(0.101178027473762 0.037955432516299 -0.00255058247792951) 33
(0.103826896844309 0.036807983509462 0.00191505517875219) 33
(0.10022352894831 0.0348353512466224 0.00354850584340293) 33
(0.102619657187315 0.0354033951082378 -4.33523332359824e-05) 33
(0.105217256899846 0.034991094517379 -0.00123388540844955) 33
(0.099945834370128 0.0372275667311597 -0.00056761851537653) 33
(0.0994420673244787 0.0346346783335724 -0.000864972649383161) 33
(0.113008974902774 0.0390221289890907 0.0027534122412563) 34
(0.108641431532225 0.0416329557254608 -0.00205590883563636) 34
(0.11101845050392 0.0415620088463241 -0.00344868334126235) 34
(0.113445748729428 0.0390050852461099 0.00408679194174293) 34
(0.110385205269167 0.0381648312415609 5.83774511432131e-05) 34
(0.111081370116121 0.0390819868192003 -6.34155566852793e-05) 34
(0.10741486693123 0.0411579295813645 0.00152308350935296) 34
(0.120411509582688 0.0441733614814502 0.0004918643150249) 35
(0.120048835279189 0.0450125724594142 0.00305363293980938) 35
(0.117370488487102 0.044227484706892 0.00290069964073056) 35
(0.121336858089711 0.0419126104644569 0.00413483614556116) 35
(0.116418358195554 0.0380687581513895 0.00242428145289927) 35
(0.120323492747784 0.0397587230302103 0.00112329998510969) 35
(0.115182472410275 0.0390771160113457 0.00225229828885992) 35
(0.127181553003875 0.0432858828160003 0.00138177415817579) 36
(0.124323534714384 0.0447060853040645 0.00101991971022689) 36
(0.127894926256222 0.0449965417346416 -0.00356684104568404) 36
(0.127219868429963 0.0415488351311944 -0.00379353498395882) 36
(0.12542767790365 0.0412548080657669 0.00392340702895121) 36
(0.122569597597704 0.0438681020202045 0.00249167907667788) 36
(0.135483197642851 0.0475744843918512 -0.00203440360346091) 37
(0.133505940093739 0.0485600034498939 0.000787040785337191) 37
(0.133193724219227 0.0429042669764809 -0.00356469575404395) 37
(0.134322251254066 0.0477373656945792 0.0036571193370552) 37
(0.135594048695429 0.0429876928865467 0.000409152543511557) 37
(0.130167177552726 0.0462755210675821 -0.00218432161000626) 37
(0.141450307806574 0.0495737432871379 1.44358122909953e-05) 38
(0.140914046452012 0.047850491767907 -0.00309433513443441) 38
(0.143411920576145 0.0502578225487457 -0.00278393453034986) 38
(0.140786789520449 0.0466944709629702 0.000925081523704454) 38
(0.143924966259332 0.0455193987088852 -0.00150225759091302) 38
(0.138391652331249 0.0477501893931221 0.000173280292198144) 38
(0.151189897440096 0.0506499585757885 -0.00235825637726945) 39
(0.149291020282998 0.0526821519985886 0.00109702227999373) 39
(0.148625934283258 0.0518446658089322 -0.00114745964412228) 39
(0.146712751775908 0.0498416834933248 -0.00346347967464411) 39
(0.147303390927448 0.049266447646322 0.00277258760601891) 39
(0.151735968360995 0.0476783351521613 -0.000903903589778598) 39
(0.147479277445792 0.0494881311922926 0.00066523051780483) 39
(0.159345648850277 0.0535204506346001 -0.000449395708660622) 40
(0.155030830699132 0.0505992013103411 -0.00269927023622513) 40
(0.155355457149656 0.0520354801752872 -0.00200925124357538) 40
(0.156457047381601 0.0510715998053628 -0.00214835662001492) 40
(0.157545705347254 0.0491030957245103 0.00328898633936771) 40
(0.156144561474231 0.0499377998392488 -0.000343406820472011) 40
(0.154492494579184 0.0500838532774719 -0.00151182605502834) 40
(0.165387848564524 0.055281549589739 -0.00150426954815408) 41
(0.161117205289208 0.0552541521757738 -0.00337995243637407) 41
(0.163981218917215 0.0528778080121451 -0.00395205431885104) 41
(0.162260223904235 0.0560507739383556 0.00402772862075157) 41
(0.163255947507501 0.050494710036898 0.000931495151393813) 41
(0.163339683690779 0.0531914733021671 -0.000426608501540032) 41
(0.162137194185283 0.0525552346806892 0.00053571058030447) 41
(0.16002304122485 0.050847432600903 0.000711906366598948) 41
(0.174363597098504 0.0565283901373422 -0.00155805347180205) 42
(0.173459623916532 0.0578558317881949 0.00220892576323295) 42
(0.17453463472183 0.0592548727223217 -0.00272915291934822) 42
(0.170442615953162 0.056108712948277 -0.00207865199090838) 42
(0.175052330316377 0.0544936540266829 -0.00407215036377511) 42
(0.170076573288574 0.0522162069031114 -0.00401412209415964) 42
(0.172371387763075 0.0556984951566446 0.00322427002127905) 42
(0.170098863892269 0.0576897254497353 0.00393530401218215) 42
(0.171486043625604 0.0568554157307571 0.00329556959613376) 42
(0.168807283527346 0.0517920216184279 0.00324594461952856) 42
(0.169227366674589 0.0540575726652841 0.00231898690872835) 42
(0.182505049100568 0.0594549457836257 -0.000676433438258142) 43
(0.181102917327722 0.0564752833049291 0.000579861513213293) 43
(0.178365558005126 0.0567914183628088 -0.00322297015614717) 43
(0.181325438560853 0.0554990109213301 0.00366099754159329) 43
(0.180118581123985 0.0569298926722898 0.00129065479040504) 43
(0.178117308239946 0.0576776171584813 0.00114873940383054) 43
(0.178561333273707 0.0542669900452723 -1.18468453211079e-05) 43
(0.176331649935269 0.0580035169693514 -0.00231571744596102) 43
(0.18755239680739 0.0589156148259447 -0.000172113825199057) 44
(0.188837528358364 0.0626607863155967 8.86292639670984e-05) 44
(0.185276017193497 0.0569868191802429 -0.00326547270759059) 44
(0.186948400865656 0.0599334068975303 0.00156368279287366) 44
(0.183552112528515 0.0560974663889609 -0.00119848924876799) 44
(0.197448034349694 0.0641248571478071 0.00328274024861888) 45
(0.198093531445836 0.0600116385617527 0.00118702818748292) 45
(0.19591904204209 0.0644999041595283 0.00304442183479397) 45
(0.191489796731037 0.0601282353627456 -0.00379109370870779) 45
(0.194450420269135 0.0602549455877779 -0.00199416836112301) 45
(0.196460278059672 0.0632956909014202 -0.00337667550905542) 45
(0.193131743441895 0.06067773517105 0.00386977527284167) 45
(0.190977626414464 0.0619009699340976 -0.00249126649116906) 45
(0.190672705190374 0.0633795661089117 -0.000912971143083683) 45
(0.191883203146721 0.0602645874771176 0.00182914896315749) 45
(0.201602357501454 0.0645390395593669 -0.000253452340652856) 46
(0.204566416800885 0.0669175026352202 -0.00376812007594469) 46
(0.199170765536711 0.0624449582037112 -0.00388540400407097) 46
(0.202819605881555 0.0651242230655814 -0.00234579650302761) 46
(0.200399495463776 0.0615245544257871 0.0031370560477577) 46
(0.199820970104692 0.0624374548517207 0.00369273689646868) 46
(0.200884733670459 0.0608037878231231 -0.00100702654588567) 46
(0.211949367597131 0.0673452664828063 -0.00230273385311472) 47
(0.212942997818337 0.0646589104803491 0.000232345200701187) 47
(0.207752144633495 0.0641360453991537 -0.00333372827489058) 47
(0.209518571490558 0.064636968707671 -0.00288499778356379) 47
(0.2112811302142 0.0644751929470129 0.00365408840122315) 47
(0.208915619095475 0.0625281182599045 0.000200088818867384) 47
(0.211768081041567 0.0639345531635865 0.00164878850584283) 47
(0.20669433960067 0.0630249126642498 -0.00157744041978128) 47
(0.220892852737135 0.0703532591744055 0.000404127606472949) 48
(0.220267962517157 0.0692309189477964 0.0029878636891205) 48
(0.218661391236891 0.0701139064001494 0.00209372102153394) 48
(0.216533320576952 0.0665588652877493 0.002216549386819) 48
(0.214879175599007 0.0660255106995354 -0.000422084278042387) 48
(0.227793785451908 0.0720945197156874 -0.00259308215069004) 49
(0.225731161074906 0.0699268284241578 0.000697181161159411) 49
(0.224639797200702 0.0703531253069816 -0.000132310944985138) 49
(0.222822931933288 0.0669653083297805 0.00241783127406482) 49
(0.224421052631644 0.0681019702399895 -0.000827111886973831) 49
(0.227297982277339 0.0678189367776357 -0.00155727097339384) 49
(0.221089531292461 0.0704390419569009 0.00167490313451215) 49
(0.221305805632609 0.0657988420252718 -0.000201570560226002) 49
(0.221699405118031 0.068215138095389 0.00277631761062536) 49
(0.230641825137946 0.0730650510116428 0.00093218587094337) 50
(0.233697089806766 0.0737603684557373 -0.00349952373860708) 50
(0.230521647819221 0.0697575902543396 0.00407143554038671) 50
(0.234051110935844 0.0691457848715918 0.00217230430233739) 50
(0.232784080408214 0.0701205823168304 2.61778140606363e-05) 50
(0.228829486655536 0.072335309448017 -0.00159043263858568) 50
(0.24366753898849 0.0746562287140814 -0.000774037243845133) 51
(0.239383480520806 0.0736603880586396 -1.20258737073119e-05) 51
(0.23812355166256 0.0719035283307941 -0.00371523556301479) 51
(0.241040993775462 0.073707257023574 0.00174345359428189) 51
(0.240781301582899 0.0705711212891691 0.00351086730786079) 51
(0.236653078208668 0.0745278084179804 -0.00297317149069481) 51
(0.237812695479412 0.0710877457464687 0.00160112378338182) 51
(0.250875090214803 0.0760826449744032 -0.0021228536831063) 52
(0.246987063731549 0.0749862783197336 -0.00219833606257761) 52
(0.247978557043858 0.0728695406516358 0.00370369217667415) 52
(0.248742680387285 0.0763758495169457 0.00225103209430661) 52
(0.249848468037647 0.0736691449618716 0.00280896054964066) 52
(0.247734014299671 0.0733730801470584 7.59558997793018e-05) 52
(0.24442679324379 0.0726785403034358 0.00100457244486535) 52
(0.258294084124338 0.0796059286558489 -0.00231212541642869) 53
(0.257948120382407 0.080109203533177 0.00246430937045168) 53
(0.256802281419735 0.0761469345925917 -0.00401165738182711) 53
(0.254754812625346 0.0749776669781752 0.00199042249980067) 53
(0.255252384941647 0.0759763430564045 -0.000547763159725406) 53
(0.252623960128705 0.0754367335650325 -0.000964231259043332) 53
(0.266610171220809 0.0784543785049403 -0.0016600742217722) 54
(0.264420740368228 0.0822555546924838 -0.0014184964394351) 54
(0.259492584348188 0.0808221266968197 -0.00409994612230883) 54
(0.264388180733914 0.078967975933512 -0.00385056993483454) 54
(0.262405161778671 0.0784212437882725 0.00259788826558703) 54
(0.262136959234687 0.0789593934776746 0.00133790240474029) 54
(0.263147216671335 0.0778055017836962 0.00190607917403986) 54
(0.265366961179617 0.0773375250209105 -2.72011221708604e-05) 54
(0.262764447617807 0.0763949378739906 -0.00308660834997722) 54
(0.274201958594126 0.0813061995680085 -0.00160784004132543) 55
(0.273414940527618 0.0797604186565871 0.00289556018372818) 55
(0.267271210198073 0.0830220313702453 -0.000604172601147165) 55
(0.271241005547231 0.0821331261208247 -0.00293174877579843) 55
(0.272434449007001 0.0823005154364885 -0.00352273937763484) 55
(0.270851796535064 0.079053791061408 0.0034295507185089) 55
(0.267877457623737 0.0819556499653242 0.00394783518736949) 55
(0.270256859943582 0.0784754163744307 -0.00346586083309233) 55
(0.280689512370047 0.0835429408009008 -0.000750179930254497) 56
(0.279616745323946 0.0828847235807018 -0.000451733588663266) 56
(0.277618478181146 0.0844292581615581 -0.000255999609373088) 56
(0.277843494060452 0.0821020770320026 -0.0021537997535952) 56
(0.279393896788058 0.082871368902007 0.00199457130987465) 56
(0.277108347035094 0.0805804740326759 -0.000874557285227646) 56
(0.280178377618461 0.080950489204163 0.00138605473050633) 56
(0.275015120508978 0.0821920731035212 -0.00168726448188098) 56
(0.287928177014598 0.087259223570917 -0.000487275207619831) 57
(0.283821596186409 0.0837399381791912 -0.00318073090705722) 57
(0.287067332925323 0.0829581113052537 0.00335583288927696) 57
(0.286337059704369 0.0831155776378651 -0.00115578510272427) 57
(0.283686941439901 0.0832729025002305 0.000664465678592868) 57
(0.297120880648583 0.0896961940170543 -0.00326897832517378) 58
(0.290983654132201 0.088426905290466 0.00213143347356617) 58
(0.29206498570627 0.088729695881169 -0.00262512219003351) 58
(0.291713683701675 0.0878285113663411 -0.00352038072125738) 58
(0.292517265225348 0.0843417044557586 0.000661874937305643) 58
(0.292851300573204 0.085916587352625 -0.00114428189865736) 58
(0.291614317106606 0.084687739835342 -0.00243530486530469) 58
(0.291619490406286 0.0859283179974064 -0.00109952755246873) 58
(0.290883893141171 0.0857445752267851 -0.000567014483356087) 58
(0.297783340038849 0.0905225480068822 -0.00134977574035505) 59
(0.303300008019332 0.0912872848947544 -0.00103352434443343) 59
(0.302684477719888 0.0908325008678506 0.00297918635027176) 59
(0.299647799378783 0.0858074119186226 -0.000189624217568797) 59
(0.2988106503947 0.0881277122722777 -0.00146410536185667) 59
(0.083723543278121 0.0375930688271873 0.0027087453422813) 60