/*--------------------------------*- C++ -*----------------------------------*\
| =========                 |                                                 |
| \\      /  F ield         | OpenFOAM: The Open Source CFD Toolbox           |
|  \\    /   O peration     | Version:  2406                                  |
|   \\  /    A nd           | Website:  www.openfoam.com                      |
|    \\/     M anipulation  |                                                 |
\*---------------------------------------------------------------------------*/
FoamFile
{
    version     2.0;
    format      ascii;
    arch        "LSB;label=32;scalar=64";
    class       vectorField;
    location    "0/lagrangian/dsmc";
    object      U;
}
// * * * * * * * * * * * * * * * * * * * * * * * * * * * * * * * * * * * * * //


4305
(
(2048.77654920193 -570.269417738353 -139.196493180371)
(1626.27267113569 221.881281735225 379.53762651079)
(1956.5260922717 -359.545313587751 -246.368218822641)
(1742.1220333939 538.192815558968 318.029374699927)
(2352.31657768843 182.43207377664 304.115421088122)
(1849.9723907301 553.564421641482 107.607840229201)
(1421.14826435244 -298.698830163709 -207.590971926518)
(1795.89725220396 280.959657460063 239.343978876814)
(1781.81170667806 408.052507196917 -58.5081064605788)
(1285.42741142002 -557.023366444727 -158.058509857704)
(1975.37438931781 -86.665824061722 57.1862606993897)
(2357.69374063422 -253.88642834427 -443.491504839956)
(1324.80602270775 357.050216271291 -137.667371761004)
(1814.51455180844 174.449621576326 239.232650701374)
(1736.52579517317 -63.634281318093 -332.252452164609)
(1841.30326325481 344.846024040828 456.913401481004)
(2193.94024706476 -20.7679451382846 87.3191748573013)
(1461.91699266541 293.70323995979 -72.9318705033789)
(1683.72171813369 -241.521383473101 131.551879711862)
(1713.09749419285 21.6559697436983 70.929014165919)
(1821.37011023046 -3.63932203910047 353.204864003764)
(2018.42250648213 -665.912801387236 -428.496375269476)
(1408.68785321535 -480.973329862374 -261.455584221548)
(1799.34897887172 445.194634334173 433.445320127095)
(1604.89458294015 -506.974718890327 220.519477539932)
(1498.79223287317 454.750863640999 -152.475996959956)
(1668.69811913032 -486.379343977658 109.059929881553)
(1112.4744336664 138.794753652046 -192.689105057659)
(2019.08879950204 -210.211469156313 322.509173938911)
(1312.77274360347 319.641870716652 323.504043322252)
(2008.31224369748 279.929354895841 127.156237958016)
(2279.25546641331 562.518142583866 -248.039351003849)
(1534.64384022535 480.346117932762 -174.989659129797)
(1198.79753014596 -367.21864716713 -19.9408363643251)
(1803.56203309346 -108.714199531839 214.779527120856)
(1910.81757384051 -35.9476630789846 -254.541021483228)
(1503.18353785867 -360.882775663249 -444.126217086415)
(1534.42609558714 269.834879038203 28.7396178460845)
(1975.94121840624 360.795103341831 -94.7490188635539)
(1435.43636137877 -124.723552970695 -379.590858319682)
(1951.17138975883 -119.839932326228 -69.7581411274797)
(1466.90442239069 140.184200306662 199.233538776743)
(1724.63260672307 -141.378076519398 -351.585676169462)
(1481.64262231386 161.710956869785 48.8029415577409)
(2141.31637943418 352.338988077651 -168.167697107348)
(2147.47086474169 86.9186253272965 -60.3548732592075)
(1586.87538344644 -104.284459966115 -364.801660983137)
(1867.93376227594 -14.2681999675634 293.932535379028)
(1584.97301541761 636.686854745559 -69.8004324544917)
(1594.6355455923 -591.376481290363 108.544749544209)
(1927.52737531487 71.3458587876245 -399.412125584365)
(1931.84856153198 185.85992204406 42.9546589812338)
(1858.08928989444 627.052111355844 -242.624230636297)
(1792.71412685376 -22.0926397758886 -95.0352077240435)
(1751.38979869427 173.625153568477 -65.5653308784306)
(1595.9516321064 -128.950566606737 -39.2408129411271)
(1225.72647453063 -62.5988781942664 321.309496375288)
(1573.80923720827 -116.724636752125 767.036593236257)
(2252.84996262359 108.504682748477 156.289505569988)
(1689.62554198654 -104.651907533579 -268.517499921022)
(2040.05866349457 265.902813882891 -47.1778064817646)
(2087.45154536857 -176.716681328738 -144.86410786806)
(1569.894154178 70.6925099246834 191.959356564497)
(2040.01422725266 459.223741960233 210.618194967864)
(1344.30449529912 73.8768465113763 340.737467888524)
(1742.07432912622 70.0746544422219 -7.27834173742009)
(2341.72883716805 -193.125768249405 -24.3982586144554)
(2199.73265223233 -66.4922248355931 313.684094414787)
(1457.20842630696 69.585100803284 84.7578344819128)
(1708.75570518193 322.702612683974 157.706147017747)
(1871.47862742822 1.79407698777414 -31.4211179319321)
(1836.30449781389 -120.152882533683 -736.510841333071)
(1737.80180295644 -65.2830955832784 48.7812977754722)
(2031.07505147203 -210.545209535909 626.750570600551)
(1803.37088067708 256.506082017183 -382.356524613905)
(1567.24911850123 -341.740076865762 -4.37486417989942)
(1410.78073942837 -63.661282052833 -480.935783124846)
(2008.24348613012 -576.483666254482 36.1540618026162)
(1399.02127076435 -297.345479318428 362.924085333371)
(1651.52743226019 -244.49353349052 -340.171139258307)
(1751.24836719871 33.6900055832601 413.939115680053)
(1779.76879464925 362.493965961195 400.138490650711)
(1178.70900470572 -77.9114338666228 -92.00334518123)
(2299.75749352987 -321.10689708044 596.755956609834)
(1481.89738094116 353.475115115893 -186.852793314765)
(1182.91254052863 -156.917177784493 -144.820745631071)
(1780.11501973895 431.531221047181 401.363187365894)
(1720.32991266376 -390.811519185687 -111.917873494769)
(1886.54655883805 17.8042291639888 264.939204641553)
(1741.27551288559 357.264342399413 -71.3598716509057)
(2260.03228967705 -330.621470710163 -610.735332157274)
(1468.36924573575 -107.016931542664 202.54893729142)
(1753.79911281759 646.403557419892 321.80714147397)
(1057.9337284664 -134.771092480506 -15.2923230856592)
(1452.66911434718 652.107484641335 -339.60863792272)
(1960.01114323797 -167.922869775586 25.5255350635716)
(2146.18608500419 -144.942007627238 279.370138942961)
(1794.60248428916 66.8849763359413 -270.571891500836)
(1743.71038440757 119.757159350188 405.435171726838)
(1079.16704361133 288.938554554676 364.441784631366)
(1075.73506027371 465.253637065449 -47.0264351604049)
(2078.84920287183 260.209388876698 -161.643682811263)
(2315.41698801519 -242.435579036321 -340.018849960299)
(1570.09490062358 175.000153468835 370.370646477848)
(1628.90422949739 -171.64686258077 535.232538993202)
(1994.17126264004 307.50976878527 -183.643038623062)
(1648.73828552987 378.329475234882 -194.079461184029)
(1549.46025378165 -566.359785413861 277.448326149246)
(1763.66423675717 -223.872610090325 557.652085653207)
(2279.92255690445 -106.07028375026 -345.522382057095)
(1427.8663306893 363.07458581857 323.249265278913)
(981.944883800453 -202.219147026868 -39.3249701898167)
(1869.12105012947 119.195726086027 -142.725936181843)
(1761.23426893028 -217.113262815724 -222.390816657682)
(1381.76036783395 -233.392522667804 120.286779769168)
(1351.8278900279 -312.055518233405 33.1167279327295)
(1697.499804525 -241.229422782795 -56.7480002482215)
(1557.93439000843 -210.826154527212 -74.8626420658807)
(1516.72862640837 -119.690552869536 -150.708158308628)
(1925.21509320469 -102.789966831427 -383.69816842262)
(1913.10774125387 -154.897483284487 116.515722757496)
(2232.15465244208 -158.042230303004 -304.036208191471)
(1842.89193611627 -203.454195596065 208.626787926084)
(1688.15879833194 -120.332290424422 320.674885284354)
(1595.74501970065 -315.580041994501 155.591104209948)
(1600.68780734619 -554.45357618567 -282.367223416611)
(2002.16894036249 -160.595685125144 134.158943852528)
(1974.39224485271 15.0816442225028 260.015282471396)
(1479.17478628712 77.0608902593059 -205.231147578168)
(1625.63367841654 -90.0613710606812 439.370428770809)
(2532.48841317252 470.314961618803 491.562952194665)
(1670.15297563336 14.5639537463239 410.454811928602)
(1584.41870611319 -211.566066765469 352.629836049493)
(1346.92510462056 -143.138356319895 -284.161955279851)
(1636.29246199024 -280.339846286932 77.8801411782315)
(1565.20120316925 11.8893463204929 104.98134442338)
(1836.8124581621 -92.9177296698591 -370.177866151829)
(1756.63204211365 -216.581061139296 -39.700170643751)
(1645.81052336543 -413.579365316008 399.356702315771)
(2351.96385721266 -168.903007524428 -18.9356287368079)
(2246.04147700461 -50.0989868614697 -201.517401124821)
(1373.62165975643 320.861648641259 134.97808865452)
(2152.56652543735 137.902619411748 -158.296578685596)
(1819.40220884968 3.77398213195329 571.980994024448)
(1855.32418098154 160.816315046411 -165.882413162103)
(2284.49580506793 418.242190881545 150.358681393249)
(1813.34462266062 813.639166450397 23.2587595345541)
(1405.3653738809 500.547358471807 -63.1230798221887)
(1837.78493271933 57.4418797359715 190.882444460343)
(1853.80026652602 265.122654286527 49.9041801666488)
(1980.73884392603 -180.658265528553 257.958118750289)
(1313.65387254024 -746.114376271486 -40.7776024615103)
(1673.5149698946 -250.219886616633 -183.430736228171)
(1720.3144341376 68.4407082338935 -145.111314208745)
(1239.61749372071 -530.522524461861 219.406177651078)
(1617.84323739831 -219.094725669467 -269.282093379236)
(1131.18387367498 -433.995541243214 63.1679864121153)
(1325.97862537602 288.850983337899 252.930965030138)
(1576.23035681688 247.563008672796 630.70927985643)
(1407.94458280343 120.793121735255 324.363499818524)
(1876.16314986312 -182.877887961993 297.805537175868)
(1990.33792618089 -242.072501348758 -127.451039826168)
(1399.99205320921 -151.890928634275 -223.963294269595)
(1813.59824049086 -219.179874333683 196.016422400288)
(1540.63896466877 355.156534256355 -156.2056338194)
(1874.26934305604 -198.056634989186 -318.259018309233)
(1311.68508731015 7.18817175960092 -99.7128117075021)
(1106.12681139882 121.151939230502 -302.059287170921)
(2175.11339224643 18.2247107136956 -429.912286048038)
(1959.53836247922 108.150425201098 151.343032846055)
(2021.21350876688 -268.769222113417 389.202349380381)
(1765.09360704044 -81.0427942935185 0.751723675266327)
(1528.81637706675 -180.309909585196 66.626043323837)
(2100.80428486506 315.503982017474 330.51256362992)
(1781.73748061603 179.080154923443 -168.711215036168)
(1448.07620378668 273.201165122936 2.30844506742048)
(1663.82678427707 -405.054013026796 53.3930808115485)
(1440.9447301893 -168.472706669634 358.38002478169)
(1800.49217616063 171.115015768574 208.179691068659)
(1928.73750614558 -73.7843330224798 298.042017768145)
(1793.56160916162 -300.786406967855 366.144306696622)
(1569.91491446425 -262.249030695199 -188.628501875739)
(1886.3340127121 -362.021860308324 -134.1221989631)
(2026.46227967272 -42.4305062533531 -124.562621771248)
(1745.0357298184 -303.043732634046 -62.0964567486581)
(2246.27343986212 255.097395701608 257.125559546872)
(1515.47294592653 40.8353107757201 -164.606864857986)
(2024.00981621099 273.204002271834 254.685918188797)
(1608.95013992119 10.8687136963565 355.338130969298)
(1969.48957341742 -428.104522666647 280.119085540678)
(1459.67314360872 -803.373897089888 165.100596938223)
(1751.9169341758 -193.601192740544 396.116304596537)
(1813.56048878145 224.175667263451 -220.787064920988)
(2212.89861916747 -123.249516923319 207.836942299245)
(1298.36227245665 643.358677637805 -347.372124882087)
(1512.71833874015 116.516672351445 6.57775115855658)
(1634.10296624238 474.17363874107 -74.6323237094015)
(1742.0058373313 -330.200664674822 80.539020630302)
(1519.25437432134 99.3018874468316 -222.274019625288)
(1543.32840000791 -518.54897646061 -82.3959602312775)
(1380.84696748311 -319.453366930915 -197.85834553108)
(2228.45331055567 -453.935954456826 422.476183331838)
(1786.42027140944 -61.6466783361798 -51.9138258971598)
(1514.74030713455 231.602405759593 438.491286143685)
(1570.19922764297 -88.3602076215314 77.6218141281566)
(1633.32344673613 353.268612089861 249.9896841956)
(1231.50416525062 48.8597260147099 -155.44891433636)
(1567.45857553605 285.423631648638 -405.258941486712)
(1187.81263360473 -402.084671229561 121.554654149757)
(1302.32525130773 92.0995571636847 72.7723718301427)
(1892.86695850802 32.6077469556885 -139.83368934367)
(1862.12278014838 135.61634771749 239.702715170717)
(1836.48658900325 739.802192963359 285.764051520195)
(1606.57570434947 -461.988982612562 -167.175625604539)
(1383.28619930999 -246.493836425857 -6.71826003729097)
(2366.53742356253 -375.525982495307 158.142862984113)
(1323.81774306484 -23.6620536084825 -279.285754711381)
(1809.92490124164 -34.791078746097 -535.811383624782)
(1777.41044273906 -327.960759689552 -274.113382891944)
(2189.30774917839 -569.136248812364 823.229463113858)
(1240.991995884 -517.670615524311 -505.327461763911)
(1170.66740285627 244.122491393143 159.990274569697)
(1898.33403674775 -137.24064357468 166.06512764762)
(1311.43168375372 442.976712572439 -111.185141365861)
(1276.47929583209 -131.650541896705 33.3652316372494)
(1692.5188341436 -246.102718381537 -142.727620156562)
(1720.23083417183 -20.2966965345156 471.903523594563)
(1811.31741183385 -31.0740194437569 435.659583541815)
(1949.2642083631 -275.211785680713 -432.501661039264)
(978.6604978651 -248.419043561401 218.656955216916)
(1662.45388553313 223.04506800767 244.021754900592)
(2022.44088369543 295.711937186591 -219.688403345787)
(1724.82967929171 630.376375901463 -191.841230624357)
(1973.91077604856 12.0771022522109 173.531874684352)
(2054.0378409615 93.1003353137013 25.117740712025)
(1574.62014896671 -301.804685874606 -366.702544084268)
(1564.36340989079 145.744283409963 -161.817559474747)
(1682.22521711654 -60.2683752878015 -353.795266558515)
(1697.27618506575 -324.693398383038 -177.714780139213)
(2007.24288571683 54.0166505666274 74.7881063181735)
(1217.20240628052 568.352925147908 310.391098438681)
(2187.59271243512 -115.951305866852 -345.263075236893)
(1401.01134913588 368.598662120605 494.885751990232)
(1661.77316103144 456.913505993042 429.241330497276)
(1750.17911450041 -122.992497586675 -292.501010007713)
(2335.29513126349 30.5857652677713 -35.7552124343034)
(1882.20154131757 36.5927835278994 56.415357038677)
(1744.11099455232 -262.373228815337 -441.53664017533)
(1887.78344284966 120.981506095551 -120.746462756168)
(2139.02063597888 633.651252442724 699.331061408027)
(1703.15905352818 162.000222414436 286.567514339841)
(1786.78875750303 -199.117451535953 -171.24418527671)
(1522.82397994683 -71.4471403194221 172.253186140537)
(1843.77200367679 34.9226933846996 -37.6173419531937)
(1620.65711290687 241.616977014618 94.4529794223046)
(1193.89840839172 -177.947403975587 113.176580998898)
(1478.69600398135 314.579385582444 -316.306356688387)
(1389.97895583219 -170.195839182974 194.86363230872)
(1862.87682557653 -41.271831223495 190.017353593108)
(1923.86987778129 554.300679170843 163.732624745833)
(1696.23870294133 520.397710188052 338.915833367164)
(2217.91524138098 -106.8037230847 -353.020447370343)
(1426.06433005424 30.1735863175232 323.084716189889)
(1667.6777323929 449.732641325345 138.94190912649)
(1694.18070438296 249.13788331222 -170.696556942881)
(1712.77242406116 223.960529493501 -146.74392650475)
(2306.28359957979 -73.3402224779761 -171.232205010153)
(1893.10119739445 -44.1352293523082 301.478506972146)
(1264.710610161 -939.828619349675 101.2826136863)
(1589.2524459288 -8.13933782053195 147.691398678952)
(1705.69642738268 36.3389187471586 141.335043737918)
(1707.93119567951 71.8600102407587 -681.347750981384)
(2058.50346461817 -145.081442803546 -109.943177105339)
(1289.22242378121 246.954565240008 -580.579573364599)
(1759.81063402149 529.770554932394 -155.507940150503)
(1877.5130249502 -39.6880096365678 388.053565951264)
(1938.72854574492 -214.878080919808 -208.294420694)
(1958.08257391107 -394.98535044548 9.31143130680929)
(1431.84255131725 -273.836301037138 -68.4200166301354)
(2152.66051669815 -399.329761306753 112.666043323623)
(1304.26333040792 -264.645579841677 71.7794411541938)
(1772.98148929063 332.711483812745 146.358650609351)
(1968.42646780489 108.590638553539 -396.416660044615)
(1786.2134534299 -104.377347600102 142.034134516547)
(1746.58683426811 168.92382063307 553.139121942482)
(1890.95028857646 151.163685203008 -521.496311947486)
(1510.24858209661 775.462988533325 189.939127240687)
(1139.43287826499 -297.720814979471 30.8803903542979)
(1465.68310469068 282.426187730199 337.790761709715)
(1775.26308432199 -378.371766944343 422.998226746619)
(1933.99593600684 453.446906493591 408.845584781112)
(1688.18451898618 56.7037198399883 -41.2813492012956)
(1680.50488281096 33.0249901265851 93.0638578190723)
(1241.03825059952 411.79790394537 87.1039263588611)
(1952.96755526612 19.5761200549048 -92.825559280863)
(2226.6689947394 -147.828600752056 -940.683162557354)
(1041.81120734259 525.426210118112 -237.212774130561)
(1800.2503980676 256.139787797641 -341.157565655853)
(1389.80473879625 588.505799298342 -131.577965038044)
(1366.23064269472 137.740587655201 100.913897913768)
(1911.61404055633 -93.8923755457622 -633.780013152555)
(1689.4120655555 -387.985563837951 -214.7142293367)
(1686.57990650547 209.710156493055 237.661668351178)
(2107.92642165601 637.705845571546 4.32830026390566)
(1993.93130678314 71.4475544406598 590.409073279482)
(1415.74804872759 -130.070325916982 -152.397874719543)
(1936.67784871384 -391.520438663244 -333.603470269972)
(2179.15279210214 193.544120387021 132.490391825122)
(1600.8222926532 -79.460060047452 217.409265054849)
(1616.23377412174 -693.377166469074 -64.4484911739625)
(1530.48242689085 213.935155946061 -262.897952232998)
(1289.54010732336 -43.9255273014414 517.786599234014)
(1718.02686480842 -635.276944767578 85.0771710625453)
(1945.59149366384 -19.3614757438996 -8.40318370443971)
(2212.5331135703 -90.02962045946 172.654732946136)
(2160.28099604986 -350.557973017356 126.816384437107)
(1443.73596337037 -383.822385198714 112.030452610906)
(1865.00499638147 39.9244324818566 195.412237120085)
(1882.50772859411 51.3211053211193 385.692070749439)
(1430.59885361908 131.939590837626 -8.31795499277877)
(1413.51997860455 15.5397576777702 48.298591178623)
(1831.14021173226 465.895525712371 198.189529313291)
(1625.99206978988 616.447020993506 -283.192000258688)
(1662.86823843984 -10.0167340651332 8.80072982049408)
(2106.71505942072 -231.087130236268 418.342811364795)
(1300.48869413273 -401.522705092427 8.05922709070804)
(1541.77967128311 -131.953593999718 -238.107797319282)
(1626.3586907445 -348.197995262277 -319.018179649267)
(2088.28048902321 181.985719741219 -47.1178966254537)
(1838.32551584599 251.387072099474 425.200931903548)
(1889.88539039857 211.47602160237 406.120708580931)
(1817.36069676491 -36.4541085604682 -419.144223558915)
(1383.71021913363 -157.791743495201 112.843986146301)
(1684.32960707533 -212.342224350983 12.7187858067542)
(1746.20167040728 -296.433704938441 -289.617577635953)
(1466.56729031762 41.7917311528631 -95.7903719967638)
(1481.88332946368 -285.574622422116 -445.677186206561)
(1880.82281642391 341.787164091399 617.152554165087)
(1922.56822165842 -335.195632283974 -188.618388597318)
(1403.35330824726 -61.3156652656557 -188.420274096721)
(1593.08562283038 -120.10543343929 -30.3133035806022)
(1435.63693899236 243.590849241911 -9.52712109425584)
(1563.43566231879 281.138571499545 -49.9474101529058)
(1811.15511521865 -79.2833617213494 -147.936689038002)
(1702.13241464688 687.663202894384 -444.39282429159)
(1958.17738999378 110.052883840417 -516.974774501903)
(1837.06003644555 466.051268985826 -272.383305182209)
(1681.54281385587 -86.1243363392496 439.89688484922)
(1419.97451669205 -316.701702412161 -202.799902965458)
(1599.46072259936 223.922705827592 405.029521162808)
(1579.08936750067 232.171199347704 -419.736624198552)
(928.644533314241 -97.0827526643799 113.600518599079)
(1756.77436592042 51.1709588891199 502.365373807562)
(1765.52039167541 199.325883777607 156.347296278572)
(1552.41469556412 543.183470946073 -243.380701411003)
(1489.24839147479 194.879729798856 -173.35295304396)
(1454.89825280102 242.919754897017 212.826895292433)
(1679.38244832681 193.317814639842 -57.601502026741)
(2103.48147219657 -256.348619202341 213.821224099886)
(1537.25613066736 145.334212884917 480.247583550804)
(1876.0259469545 273.774046129382 -66.1912809496836)
(2427.5655380555 306.300002128303 -209.678654713653)
(1227.4847878559 98.9292611934091 39.8917701656026)
(1798.36544950424 513.531615252654 163.547641144297)
(1903.08020212023 -264.775973364482 376.697403782671)
(1780.79033321871 386.399362749636 10.8004647653379)
(2036.78641135055 -154.198083636729 -33.6128694764614)
(1782.59303080812 -302.885800211352 -274.272301516992)
(1665.93147278795 520.290564444402 615.904445407301)
(1725.67619715647 -137.980040559836 576.573098769135)
(1527.78947234264 251.971412596573 -178.804673070113)
(1777.80902122692 189.598046556363 28.9770918966933)
(1062.90231287668 -17.1871727454303 -5.70837370089609)
(1817.3188909068 -436.747798180028 -749.706664538068)
(1475.85559523523 974.676921776689 631.214986004823)
(1840.36393465868 -356.27069342903 -168.361411134176)
(1870.87675090046 -353.492518784478 223.954607209522)
(1838.10077175142 -87.2036869591696 299.558650203573)
(1988.92394525789 251.027944369814 -523.419112349859)
(1594.41637111544 -436.209268557957 137.727546388761)
(2053.17724328777 -42.2732178970679 47.9644422242391)
(1304.89593593888 121.199848509665 -275.477875609691)
(1665.21788025932 -590.22317532793 49.9083013074449)
(2009.58793732208 366.99047070131 228.123182889864)
(1712.93279762389 189.495846928489 83.2685301816947)
(1724.63745553024 72.0275815567024 -225.115032129549)
(1727.18909240218 49.2960086946971 -56.5607502249186)
(2052.49648600756 138.424171690414 48.2218542970476)
(1557.70171422398 -211.886608826319 75.7740644645475)
(1626.05080745102 283.271347804849 670.656473996509)
(1319.53685874766 -177.826630219668 675.206552745197)
(1535.5201243619 134.817984817248 682.531572718725)
(924.832974819107 182.14048909563 -19.404665865482)
(1446.9946726736 -186.595914762358 65.8833061194469)
(1250.42241620996 -96.2108213350316 480.626161994004)
(2447.87993952597 -316.309393199075 -18.5546261651688)
(1249.14231921095 451.352735888246 -507.942402179664)
(1526.34388239279 -67.4700437732133 -151.49882117058)
(1613.06441634918 120.544207203067 -194.107962793419)
(1678.42596695947 182.994352570265 103.551595648208)
(1294.64261352047 294.270176351309 -174.441388065473)
(2169.01993654741 478.362455874444 195.925870602264)
(1677.15090611519 -5.97373485188683 155.80590095286)
(2097.45417495945 -35.4726253384798 61.6637215808251)
(1890.53748990704 -253.152049757978 125.73730670573)
(1639.91122059856 101.87644128282 -235.168133514626)
(1566.45607453758 109.478959390602 234.879469290144)
(1770.82389123827 -81.8157644421031 524.178394465672)
(2061.25526331677 -327.030126572222 -114.98269885794)
(1505.91002493334 -11.8883434736253 616.558565260344)
(1420.33963933988 -88.2937275267238 671.243894583465)
(2197.01929039573 -146.742716329148 -728.292775686294)
(1623.45824074148 -422.114960145559 -495.328264998771)
(2020.45596405467 78.8852604110597 217.532329235059)
(1538.55937821301 -134.624253055531 301.882617321258)
(1835.67145603443 -24.2128449623407 -172.968401073699)
(1516.06915395614 -219.562546247277 -337.303809862989)
(1546.74659411428 -341.192343592154 74.0939202545871)
(1960.91549820272 150.700324168222 42.154005822833)
(1507.5815444823 -201.543237893708 -372.953609403306)
(1860.84066826557 -130.869712494102 237.929306346139)
(1548.23143894758 -15.5394701648322 81.385705880396)
(1698.11142330511 -172.510784148134 -276.54684624282)
(2057.17744249458 689.902824066592 -126.070658143787)
(1387.381417185 -408.094771342876 -81.0276470517668)
(1561.70601430013 -55.6608570127604 -232.990024300887)
(1862.92200334355 121.073508916051 -237.572866651055)
(1856.61820733208 -392.452944875086 -269.453647236456)
(2330.9329703693 90.0886664997305 -207.900166674683)
(1656.58946422594 -491.945486892493 59.1433542955611)
(1301.6920803515 92.6513548871713 131.641560908282)
(1454.14227043379 -19.3443294228418 19.272480167951)
(1140.28191404008 400.910690818584 252.998462925369)
(1638.33934695662 -570.382762894826 29.865496859822)
(2019.11478489684 -83.0519437904078 -84.8293162060499)
(1659.28300572345 524.524258072501 -90.4359300083012)
(2118.06217135926 -47.8080340102893 122.101154223116)
(1610.08386014781 -124.570653842014 58.1859430954599)
(2151.26871483388 415.932614080958 -146.151096384778)
(1618.25669401665 337.416222559641 477.809053047805)
(1683.60939529749 104.325089386045 -322.344387577782)
(1548.02830483491 -51.1767201236816 90.6482741827381)
(2111.7796036795 -14.8911729405118 16.2561521043151)
(1165.54038876356 184.473673084433 340.013195062527)
(1642.2478983853 -10.5977043881512 532.092458069816)
(1919.00213931258 -40.8439778530798 231.420498355193)
(1831.84699247968 233.934674405259 -308.953869751456)
(2234.86299396046 185.122158905118 155.233925026265)
(964.625522040659 87.564884356994 -338.766214044345)
(1332.17969507483 211.192241057508 443.403329998725)
(1725.3982611714 19.5665708209518 187.932905541237)
(1701.94370041306 97.4790292985127 -59.1729268207722)
(1301.95424965067 29.9080392043235 572.251658659971)
(1764.31074132996 -368.422253270695 217.415363285986)
(1817.31378262315 458.365062585475 -214.408998593297)
(1994.78540461943 485.509504718475 201.502168329433)
(1283.41902121335 72.9057614272272 -435.983253065985)
(1498.92712457428 -226.253641727327 262.939955208636)
(1367.31123266441 113.088077533776 -31.7908539068309)
(2044.85925616968 406.173659189105 200.522666488661)
(1822.65577643994 -311.992431052144 209.820713311634)
(1743.90078853629 -173.584687219795 -589.538276125526)
(2097.20573368445 -362.342918669612 279.641042817584)
(1554.87174961314 -421.635141778705 257.262919403333)
(1572.966771991 1.15200305772663 111.926386481106)
(1472.63202548155 -119.68020583053 676.76570558103)
(2328.66290706398 -275.31506812766 73.7455947692808)
(2214.91944692919 -186.65010506355 -9.92978499643914)
(2311.24926244988 -226.100811280685 -4.91150913689892)
(1257.52077354189 384.267565527584 -59.4751683856203)
(1450.62689043297 53.437350303646 -263.574949225529)
(1940.90129552858 108.593070452901 218.677083068586)
(1664.25717390575 24.0155877473075 146.096691656396)
(2246.06021585912 -16.1037895918743 -237.804396945778)
(1346.3841599203 -515.221481706815 -267.573352323876)
(1546.17301115789 -444.532742674615 0.44915078247142)
(1882.49051878985 -312.95793668742 -240.561394283414)
(2081.07127017751 63.3037161561115 -12.7872407555042)
(1691.62355229387 -101.298454895282 -371.727595061641)
(1859.62188726188 -72.8130013690377 -8.51259358934595)
(2190.73737030049 11.8633483659374 72.7600049546897)
(1646.13838019526 273.535717753311 -706.111020066759)
(1478.02109937652 -376.347118455473 -34.8354229396806)
(1769.93820203242 -25.1026173209722 -117.340677773616)
(2009.49344111517 -179.973652552203 -163.158819281297)
(2046.81969016779 -153.541110244302 432.374731163543)
(1913.8228403312 -408.052730495122 -109.759113194299)
(1699.84572791419 -36.4358248449084 -122.325426424745)
(1827.14771139145 219.851226931182 166.985778882035)
(2020.73598395918 397.940481485293 152.369360762572)
(2006.83153437751 160.607512857868 28.9252210832915)
(1819.40174930844 -67.6217717980887 -533.721187218996)
(1161.98278209751 -39.5656033588074 -475.492919854616)
(1052.11233180624 -179.682993884631 225.182126895326)
(1905.80518552694 -215.305471986884 2.49053210524059)
(1856.51260040506 -335.687556888975 -60.868657372717)
(1670.86802381446 -112.675329891137 45.7778500419388)
(1856.86928767677 181.680840009618 -168.519322828135)
(2130.45415697141 108.088512293675 292.589018448552)
(1630.27518350559 -15.3937899845154 -39.5662585226631)
(1707.10993205168 -173.418967191759 435.18456181778)
(1439.76254382976 -641.849380118442 -6.58585731057996)
(1954.36679315777 -255.113716814468 -200.054821896963)
(1861.46480742426 -117.443533933677 21.052051211127)
(1568.96176707633 -314.577913955363 -83.5716270110563)
(1919.44704329042 169.103618031621 139.538000337754)
(1752.70196931523 -64.2529537482564 83.8950526628734)
(1357.03489019 -542.715341003901 -117.851123964545)
(1668.07938337304 -49.9558801903523 -389.519027092429)
(1368.09146258936 309.965432506469 -584.77979481755)
(1905.92932286876 340.337196676702 235.685430907515)
(1632.47181773933 -80.65346066923 -90.8445837916686)
(1941.4886473498 -463.434664398205 324.296328653494)
(1489.62708096428 -138.255664583511 57.9352510207911)
(1513.06933310883 -100.949057255579 456.182299991957)
(1985.27251496566 104.610914062807 -268.729155882353)
(1896.25967694751 44.1318453900553 -100.249248058605)
(1944.21915123199 -81.6718292924257 469.904798875689)
(2147.3391049957 55.7467087185313 -289.447740280042)
(1618.50055013477 -50.448280147056 -173.406285683147)
(1947.41450462374 -473.27787945839 472.054907642338)
(1254.9840045735 -159.150723617302 187.863527404891)
(1779.48597832752 -512.012137862664 -310.529808282453)
(1607.84932647282 -0.327783889176205 368.97583158128)
(1452.04777667871 -530.030980449924 234.865856426047)
(1891.94477432401 -200.154280396332 -331.33312712138)
(1727.72076558498 -494.469382094701 -150.230644299582)
(1682.77240547506 54.5391992815674 -382.066121831816)
(1863.14686027911 89.1612648233759 -1.0060039534995)
(1492.21382343875 201.608091660075 -109.72565942154)
(2196.5633707509 -333.921016520305 385.115694234467)
(1723.58283791057 64.7571951699001 127.360310200767)
(1684.31739799004 209.881152800354 -181.942312267753)
(1768.40435222951 508.805075409308 299.018065374565)
(1692.84172923426 30.3764010747114 341.271021138424)
(1444.8196821827 -404.278977503057 173.230105402794)
(1936.00824172648 -209.192765874603 384.325440689002)
(1500.53819471176 -337.718729101153 -114.289504978088)
(1722.23679675189 356.798426131951 -33.4426504642545)
(1832.47813251068 79.2123913109914 -86.4199413201478)
(2010.96681829603 -95.3730191935838 162.347284956553)
(1395.53325235966 28.6072952816999 -4.36688255495537)
(1577.24123658544 -9.55849750981087 -479.655590516509)